@<TRIPOS>MOLECULE
E20
   57    60     1     0     0
SMALL
No Charge or Current Charge


@<TRIPOS>ATOM
      1 C1           0.3650     0.1610     5.6720 ca         1 E20       0.092100
      2 C2          -1.0080    -0.0330     5.3580 ca         1 E20       0.147100
      3 C3          -1.3830    -0.4760     4.0640 ca         1 E20      -0.185000
      4 C4          -0.3890    -0.7060     3.1040 ca         1 E20      -0.039300
      5 C5           0.9420    -0.5070     3.4110 ca         1 E20      -0.196600
      6 C6           1.3530    -0.0840     4.6850 ca         1 E20      -0.103000
      7 C7           1.8080    -0.8220     2.2480 c          1 E20       0.592700
      8 C8           0.8130    -0.8930     1.0570 c5         1 E20      -0.168700
      9 C9          -0.5990    -1.2140     1.6940 c5         1 E20      -0.030100
     10 C10          0.8580     0.4510     0.2710 c3         1 E20      -0.056400
     11 C11         -0.0080     0.5820    -1.0220 c6         1 E20      -0.062700
     12 C12          0.1210     1.9990    -1.6390 c6         1 E20      -0.073400
     13 C13         -0.7120     2.1290    -2.9370 c6         1 E20       0.169800
     14 N14         -0.3270     1.1010    -3.9420 n3         1 E20      -0.723600
     15 C15         -0.4820    -0.2750    -3.3910 c6         1 E20       0.169800
     16 C16          0.3500    -0.4760    -2.1000 c6         1 E20      -0.073400
     17 C17         -1.0360     1.2900    -5.2300 c3         1 E20       0.217100
     18 C18         -0.5330     0.3760    -6.3450 ca         1 E20      -0.087300
     19 C19         -1.3580    -0.6450    -6.8600 ca         1 E20      -0.099000
     20 C20         -0.8900    -1.4850    -7.8860 ca         1 E20      -0.114500
     21 C21          0.4040    -1.3090    -8.4050 ca         1 E20      -0.110000
     22 C22          1.2310    -0.2940    -7.8960 ca         1 E20      -0.114500
     23 C23          0.7640     0.5460    -6.8690 ca         1 E20      -0.099000
     24 O24          2.9890    -1.1430     2.3020 o          1 E20      -0.520100
     25 O25          0.7000     0.5880     6.9470 os         1 E20      -0.321100
     26 C26          2.0620     0.8110     7.3550 c3         1 E20       0.143900
     27 O27         -1.9510     0.2120     6.3430 os         1 E20      -0.317100
     28 C28         -3.3620     0.0440     6.1190 c3         1 E20       0.144900
     29 H3          -2.4220    -0.6460     3.7960 ha         1 E20       0.124000
     30 H6           2.4120     0.0510     4.8870 ha         1 E20       0.138000
     31 H8           1.1620    -1.6750     0.3740 hc         1 E20       0.077700
     32 H91         -0.8040    -2.2910     1.6910 hc         1 E20       0.060200
     33 H92         -1.4350    -0.7220     1.1860 hc         1 E20       0.060200
     34 H101         0.5780     1.2600     0.9580 hc         1 E20       0.054200
     35 H102         1.9030     0.6550     0.0040 hc         1 E20       0.054200
     36 H11         -1.0570     0.4370    -0.7280 hc         1 E20       0.040700
     37 H121        -0.2110     2.7570    -0.9170 hc         1 E20       0.047700
     38 H122         1.1740     2.2180    -1.8620 hc         1 E20       0.047700
     39 H131        -1.7800     2.0360    -2.6890 h1         1 E20       0.031200
     40 H132        -0.5630     3.1380    -3.3490 h1         1 E20       0.031200
     41 H151        -1.5410    -0.4760    -3.1680 h1         1 E20       0.031200
     42 H152        -0.1600    -1.0260    -4.1270 h1         1 E20       0.031200
     43 H161         1.4200    -0.4180    -2.3440 hc         1 E20       0.047700
     44 H162         0.1680    -1.4890    -1.7190 hc         1 E20       0.047700
     45 H171        -2.1140     1.1310    -5.0900 h1         1 E20       0.036200
     46 H172        -0.9120     2.3280    -5.5700 h1         1 E20       0.036200
     47 H19         -2.3600    -0.7900    -6.4630 ha         1 E20       0.117500
     48 H20         -1.5310    -2.2710    -8.2790 ha         1 E20       0.111000
     49 H21          0.7650    -1.9590    -9.1990 ha         1 E20       0.111000
     50 H22          2.2340    -0.1570    -8.2950 ha         1 E20       0.111000
     51 H23          1.4090     1.3280    -6.4750 ha         1 E20       0.117500
     52 H261         2.0960     1.1440     8.3990 h1         1 E20       0.042033
     53 H262         2.6500    -0.1120     7.2740 h1         1 E20       0.042033
     54 H263         2.5330     1.5860     6.7360 h1         1 E20       0.042033
     55 H281        -3.9230     0.2950     7.0280 h1         1 E20       0.042700
     56 H282        -3.7100     0.7020     5.3120 h1         1 E20       0.042700
     57 H283        -3.5940    -0.9950     5.8530 h1         1 E20       0.042700
@<TRIPOS>BOND
     1     1     2 ar  
     2     1     6 ar  
     3     1    25 1   
     4     2     3 ar  
     5     2    27 1   
     6     3     4 ar  
     7     3    29 1   
     8     4     5 ar  
     9     4     9 1   
    10     5     6 ar  
    11     5     7 1   
    12     6    30 1   
    13     7     8 1   
    14     7    24 2   
    15     8     9 1   
    16     8    10 1   
    17     8    31 1   
    18     9    32 1   
    19     9    33 1   
    20    10    11 1   
    21    10    34 1   
    22    10    35 1   
    23    11    12 1   
    24    11    16 1   
    25    11    36 1   
    26    12    13 1   
    27    12    37 1   
    28    12    38 1   
    29    13    14 1   
    30    13    39 1   
    31    13    40 1   
    32    14    15 1   
    33    14    17 1   
    34    15    16 1   
    35    15    41 1   
    36    15    42 1   
    37    16    43 1   
    38    16    44 1   
    39    17    18 1   
    40    17    45 1   
    41    17    46 1   
    42    18    19 ar  
    43    18    23 ar  
    44    19    20 ar  
    45    19    47 1   
    46    20    21 ar  
    47    20    48 1   
    48    21    22 ar  
    49    21    49 1   
    50    22    23 ar  
    51    22    50 1   
    52    23    51 1   
    53    25    26 1   
    54    26    52 1   
    55    26    53 1   
    56    26    54 1   
    57    27    28 1   
    58    28    55 1   
    59    28    56 1   
    60    28    57 1   
@<TRIPOS>SUBSTRUCTURE
     1 E20         1 TEMP              0 ****  ****    0 ROOT
