@<TRIPOS>MOLECULE
E21
  131   133     1     0     0
SMALL
No Charge or Current Charge


@<TRIPOS>ATOM
      1 C1A         -4.6570     2.9830    -0.8870 c3         1 E21      -0.082100
      2 C10         -4.2460     1.6240    -1.5430 c6         1 E21      -0.073700
      3 C11         -2.7980     1.2090    -1.1260 c6         1 E21       0.185300
      4 C12         -2.3850    -0.1390    -1.7660 c6         1 E21      -0.097700
      5 C1B         -2.2160    -0.0480    -3.3210 c3         1 E21      -0.080100
      6 O37         -1.8080     2.2070    -1.4630 os         1 E21      -0.462100
      7 C36         -1.3040     3.0620    -0.5220 c          1 E21       0.603300
      8 O36         -1.6680     3.1140     0.6430 o          1 E21      -0.483000
      9 C35         -0.1630     3.8350    -1.0750 ce         1 E21      -0.293200
     10 C34          0.5680     4.7230    -0.3580 c2         1 E21      -0.122200
     11 C33          1.7570     5.5360    -0.8630 c3         1 E21      -0.080500
     12 C3B          2.6250     4.7570    -1.8820 c3         1 E21      -0.090100
     13 C32          2.5900     6.1930     0.2880 c3         1 E21       0.195300
     14 O32          1.7910     7.2410     0.8520 oh         1 E21      -0.641000
     15 C31          3.0700     5.2700     1.4550 c3         1 E21      -0.153700
     16 C3A          3.8790     6.0660     2.5210 c3         1 E21      -0.080100
     17 C30          3.9050     4.0590     0.9800 c          1 E21       0.576100
     18 O30          4.9860     4.2170     0.4250 o          1 E21      -0.534100
     19 C29          3.3990     2.6420     1.3690 c3         1 E21      -0.183700
     20 C2D          3.7710     2.3450     2.8480 c3         1 E21      -0.075100
     21 C28          3.8560     1.5510     0.3440 c3         1 E21       0.205300
     22 O28          5.2810     1.4780     0.3280 oh         1 E21      -0.652000
     23 C27          3.2700     0.1100     0.4670 c3         1 E21      -0.141700
     24 C2C          1.7310     0.0680     0.6590 c3         1 E21      -0.077100
     25 C26          4.0300    -0.8110     1.4700 c          1 E21       0.575100
     26 O26          3.7480    -0.8040     2.6640 o          1 E21      -0.509100
     27 C25          5.2020    -1.7300     0.9280 c3         1 E21       0.092000
     28 C2B          6.2870    -1.8870     2.0310 c3         1 E21      -0.126100
     29 O25          5.8770    -1.1260    -0.2070 oh         1 E21      -0.638000
     30 C24          4.5580    -3.1230     0.5510 c3         1 E21       0.191300
     31 O24          3.5480    -2.9380    -0.4500 oh         1 E21      -0.661000
     32 C23          5.5100    -4.3080     0.1250 c3         1 E21      -0.078700
     33 C2A          6.2210    -4.1080    -1.2420 c3         1 E21      -0.076100
     34 C22          4.8050    -5.7010     0.1870 c3         1 E21      -0.048200
     35 C21          3.5920    -5.8030    -0.7160 c2         1 E21      -0.223200
     36 C20          2.3250    -5.5860    -0.3110 ce         1 E21      -0.188000
     37 C19          1.2050    -5.4480    -1.2380 ce         1 E21      -0.212000
     38 C18          0.0740    -4.8040    -0.8760 c2         1 E21      -0.166200
     39 C17         -1.0980    -4.3750    -1.7680 c3         1 E21      -0.023500
     40 C1C         -0.5670    -3.9040    -3.1620 c3         1 E21      -0.070400
     41 C1D          0.4450    -2.7330    -3.1220 c3         1 E21      -0.092100
     42 C16         -1.9640    -3.3050    -1.0040 c3         1 E21       0.180300
     43 O16         -2.4870    -3.9130     0.1890 oh         1 E21      -0.672000
     44 C15         -3.1560    -2.6540    -1.7680 c3         1 E21      -0.115400
     45 C13         -3.4310    -1.1920    -1.3110 c6         1 E21       0.174300
     46 O14         -4.7310    -0.7930    -1.7900 os         1 E21      -0.480000
     47 C8          -5.2410     0.4430    -1.2250 c6         1 E21       0.404000
     48 O9          -5.3540     0.2880     0.2070 os         1 E21      -0.487000
     49 C7          -6.6650     0.6980    -1.8190 c6         1 E21      -0.084400
     50 C6          -7.6890    -0.3710    -1.3460 c6         1 E21      -0.070400
     51 C5          -7.6760    -0.5200     0.2020 c6         1 E21      -0.087700
     52 C51         -8.3240     0.7100     0.9080 c3         1 E21      -0.084100
     53 C4          -6.2090    -0.7930     0.6440 c6         1 E21       0.179300
     54 C3          -5.9920    -0.9630     2.1730 c3         1 E21      -0.067400
     55 C2          -4.5420    -1.3440     2.5630 c3         1 E21       0.171300
     56 C1          -4.3410    -1.4230     4.0870 c3         1 E21      -0.132100
     57 O2          -4.1970    -2.6120     1.9950 oh         1 E21      -0.681000
     58 H1          -4.6880     2.9090     0.2060 hc         1 E21       0.043367
     59 H2          -3.9480     3.7790    -1.1440 hc         1 E21       0.043367
     60 H3          -5.6370     3.3320    -1.2280 hc         1 E21       0.043367
     61 H4          -4.2620     1.8020    -2.6260 hc         1 E21       0.070700
     62 H5          -2.7890     1.0570    -0.0360 h1         1 E21       0.075700
     63 H6          -1.4020    -0.4060    -1.3600 hc         1 E21       0.053700
     64 H7          -3.1670     0.1480    -3.8290 hc         1 E21       0.039700
     65 H8          -1.5200     0.7510    -3.6020 hc         1 E21       0.039700
     66 H9          -1.8130    -0.9730    -3.7440 hc         1 E21       0.039700
     67 H10          0.0620     3.6300    -2.1190 ha         1 E21       0.197000
     68 H11          0.2940     4.9210     0.6820 ha         1 E21       0.202000
     69 H12          1.3420     6.3690    -1.4450 hc         1 E21       0.061700
     70 H13          2.0830     4.6180    -2.8250 hc         1 E21       0.040700
     71 H14          3.5480     5.3030    -2.1140 hc         1 E21       0.040700
     72 H15          2.8930     3.7660    -1.5080 hc         1 E21       0.040700
     73 H16          3.4850     6.6420    -0.1670 h1         1 E21       0.036700
     74 H17          1.6440     7.9050     0.1440 ho         1 E21       0.444000
     75 H18          2.1800     4.8810     1.9620 hc         1 E21       0.064700
     76 H19          3.2620     6.8370     2.9970 hc         1 E21       0.050033
     77 H20          4.2470     5.4060     3.3150 hc         1 E21       0.050033
     78 H21          4.7470     6.5580     2.0650 hc         1 E21       0.050033
     79 H22          2.3050     2.7030     1.3730 hc         1 E21       0.060700
     80 H23          3.5530     3.2050     3.4900 hc         1 E21       0.046033
     81 H24          3.1730     1.5190     3.2420 hc         1 E21       0.046033
     82 H25          4.8350     2.1010     2.9570 hc         1 E21       0.046033
     83 H26          3.5240     1.9070    -0.6380 h1         1 E21       0.023700
     84 H27          5.5910     2.4150     0.2640 ho         1 E21       0.463000
     85 H28          3.4630    -0.3090    -0.5260 hc         1 E21       0.058700
     86 H29          1.2270     0.6800    -0.0990 hc         1 E21       0.045700
     87 H30          1.3610    -0.9600     0.5630 hc         1 E21       0.045700
     88 H31          1.4420     0.4390     1.6500 hc         1 E21       0.045700
     89 H32          7.1770    -2.4010     1.6480 hc         1 E21       0.052367
     90 H33          6.6070    -0.9050     2.3990 hc         1 E21       0.052367
     91 H34          5.9030    -2.4600     2.8850 hc         1 E21       0.052367
     92 H35          5.7780    -0.1430    -0.1030 ho         1 E21       0.441000
     93 H36          4.0620    -3.4670     1.4700 h1         1 E21       0.045700
     94 H37          3.2330    -3.8450    -0.6750 ho         1 E21       0.453000
     95 H38          6.3070    -4.3680     0.8740 hc         1 E21       0.052700
     96 H39          5.5000    -3.9400    -2.0500 hc         1 E21       0.038367
     97 H40          6.9110    -3.2580    -1.2110 hc         1 E21       0.038367
     98 H41          6.8160    -4.9930    -1.4990 hc         1 E21       0.038367
     99 H42          5.5270    -6.4850    -0.0730 hc         1 E21       0.048200
    100 H43          4.5140    -5.9020     1.2260 hc         1 E21       0.048200
    101 H44          3.8230    -5.9740    -1.7700 ha         1 E21       0.172000
    102 H45          2.1190    -5.3780     0.7420 ha         1 E21       0.173000
    103 H46          1.3640    -5.7810    -2.2650 ha         1 E21       0.170000
    104 H47         -0.0100    -4.4560     0.1550 ha         1 E21       0.179000
    105 H48         -1.7390    -5.2470    -1.9470 hc         1 E21       0.066700
    106 H49         -0.0880    -4.7520    -3.6650 hc         1 E21       0.041700
    107 H50         -1.3970    -3.6370    -3.8230 hc         1 E21       0.041700
    108 H51          0.0450    -1.8750    -2.5730 hc         1 E21       0.033700
    109 H52          1.3810    -3.0340    -2.6400 hc         1 E21       0.033700
    110 H53          0.6840    -2.4040    -4.1400 hc         1 E21       0.033700
    111 H54         -1.2730    -2.5030    -0.7170 h1         1 E21       0.024700
    112 H55         -3.0440    -3.2480     0.6680 ho         1 E21       0.460000
    113 H56         -3.0050    -2.6710    -2.8470 hc         1 E21       0.067200
    114 H57         -4.0530    -3.2640    -1.6060 hc         1 E21       0.067200
    115 H58         -3.4530    -1.2090    -0.2130 h1         1 E21       0.045700
    116 H59         -7.0370     1.6870    -1.5300 hc         1 E21       0.058200
    117 H60         -6.6120     0.7020    -2.9150 hc         1 E21       0.058200
    118 H61         -8.6960    -0.1120    -1.7000 hc         1 E21       0.048700
    119 H62         -7.4430    -1.3380    -1.8070 hc         1 E21       0.048700
    120 H63         -8.2930    -1.3890     0.4700 hc         1 E21       0.053700
    121 H64         -9.3180     0.9230     0.4960 hc         1 E21       0.034700
    122 H65         -8.4550     0.5310     1.9820 hc         1 E21       0.034700
    123 H66         -7.7170     1.6150     0.7950 hc         1 E21       0.034700
    124 H67         -5.8800    -1.7280     0.1680 h1         1 E21       0.057700
    125 H68         -6.2490    -0.0300     2.6870 hc         1 E21       0.057200
    126 H69         -6.6780    -1.7270     2.5580 hc         1 E21       0.057200
    127 H70         -3.8650    -0.5700     2.1750 h1         1 E21       0.046700
    128 H71         -3.3040    -1.6900     4.3260 hc         1 E21       0.043367
    129 H72         -4.5540    -0.4530     4.5520 hc         1 E21       0.043367
    130 H73         -5.0040    -2.1720     4.5360 hc         1 E21       0.043367
    131 H74         -4.6670    -3.2930     2.5250 ho         1 E21       0.445000
@<TRIPOS>BOND
     1     1     2 1   
     2     1    58 1   
     3     1    59 1   
     4     1    60 1   
     5     2     3 1   
     6     2    47 1   
     7     2    61 1   
     8     3     4 1   
     9     3     6 1   
    10     3    62 1   
    11     4     5 1   
    12     4    45 1   
    13     4    63 1   
    14     5    64 1   
    15     5    65 1   
    16     5    66 1   
    17     6     7 1   
    18     7     8 2   
    19     7     9 1   
    20     9    10 2   
    21     9    67 1   
    22    10    11 1   
    23    10    68 1   
    24    11    12 1   
    25    11    13 1   
    26    11    69 1   
    27    12    70 1   
    28    12    71 1   
    29    12    72 1   
    30    13    14 1   
    31    13    15 1   
    32    13    73 1   
    33    14    74 1   
    34    15    16 1   
    35    15    17 1   
    36    15    75 1   
    37    16    76 1   
    38    16    77 1   
    39    16    78 1   
    40    17    18 2   
    41    17    19 1   
    42    19    20 1   
    43    19    21 1   
    44    19    79 1   
    45    20    80 1   
    46    20    81 1   
    47    20    82 1   
    48    21    22 1   
    49    21    23 1   
    50    21    83 1   
    51    22    84 1   
    52    23    24 1   
    53    23    25 1   
    54    23    85 1   
    55    24    86 1   
    56    24    87 1   
    57    24    88 1   
    58    25    26 2   
    59    25    27 1   
    60    27    28 1   
    61    27    29 1   
    62    27    30 1   
    63    28    89 1   
    64    28    90 1   
    65    28    91 1   
    66    29    92 1   
    67    30    31 1   
    68    30    32 1   
    69    30    93 1   
    70    31    94 1   
    71    32    33 1   
    72    32    34 1   
    73    32    95 1   
    74    33    96 1   
    75    33    97 1   
    76    33    98 1   
    77    34    35 1   
    78    34    99 1   
    79    34   100 1   
    80    35    36 2   
    81    35   101 1   
    82    36    37 1   
    83    36   102 1   
    84    37    38 2   
    85    37   103 1   
    86    38    39 1   
    87    38   104 1   
    88    39    40 1   
    89    39    42 1   
    90    39   105 1   
    91    40    41 1   
    92    40   106 1   
    93    40   107 1   
    94    41   108 1   
    95    41   109 1   
    96    41   110 1   
    97    42    43 1   
    98    42    44 1   
    99    42   111 1   
   100    43   112 1   
   101    44    45 1   
   102    44   113 1   
   103    44   114 1   
   104    45    46 1   
   105    45   115 1   
   106    46    47 1   
   107    47    48 1   
   108    47    49 1   
   109    48    53 1   
   110    49    50 1   
   111    49   116 1   
   112    49   117 1   
   113    50    51 1   
   114    50   118 1   
   115    50   119 1   
   116    51    52 1   
   117    51    53 1   
   118    51   120 1   
   119    52   121 1   
   120    52   122 1   
   121    52   123 1   
   122    53    54 1   
   123    53   124 1   
   124    54    55 1   
   125    54   125 1   
   126    54   126 1   
   127    55    56 1   
   128    55    57 1   
   129    55   127 1   
   130    56   128 1   
   131    56   129 1   
   132    56   130 1   
   133    57   131 1   
@<TRIPOS>SUBSTRUCTURE
     1 E21         1 TEMP              0 ****  ****    0 ROOT
