@<TRIPOS>MOLECULE
E21
  131   133     1     0     0
SMALL
abcg2


@<TRIPOS>ATOM
      1 C1A         -5.6890     3.0420    -0.9110 c3         1 E21      -0.082100
      2 C10         -5.0000     1.7950    -1.4540 c6         1 E21      -0.073700
      3 C11         -3.5240     1.7520    -1.0550 c6         1 E21       0.185300
      4 C12         -2.8120     0.5090    -1.5910 c6         1 E21      -0.097700
      5 C1B         -2.6820     0.4940    -3.1120 c3         1 E21      -0.080100
      6 O37         -2.8070     2.8880    -1.5600 os         1 E21      -0.462100
      7 C36         -2.2440     3.7580    -0.7190 c          1 E21       0.603300
      8 O36         -2.6430     3.9710     0.4010 o          1 E21      -0.483000
      9 C35         -1.0360     4.3460    -1.3230 ce         1 E21      -0.293200
     10 C34         -0.2690     5.1980    -0.6420 c2         1 E21      -0.122200
     11 C33          1.1030     5.6330    -1.0360 c3         1 E21      -0.080500
     12 C3B          1.5690     5.1080    -2.3870 c3         1 E21      -0.090100
     13 C32          2.1190     5.2760     0.0840 c3         1 E21       0.195300
     14 O32          1.9150     6.0590     1.2330 oh         1 E21      -0.641000
     15 C31          2.0620     3.7860     0.4800 c3         1 E21      -0.153700
     16 C3A          1.1300     3.4970     1.6690 c3         1 E21      -0.080100
     17 C30          3.4340     3.2440     0.8450 c          1 E21       0.576100
     18 O30          4.1950     3.9160     1.5100 o          1 E21      -0.534100
     19 C29          3.8120     1.8610     0.3340 c3         1 E21      -0.183700
     20 C2D          2.7010     0.8320     0.5530 c3         1 E21      -0.075100
     21 C28          5.2270     1.4700     0.8100 c3         1 E21       0.205300
     22 O28          5.3630     1.4680     2.2100 oh         1 E21      -0.652000
     23 C27          5.7970     0.1510     0.2570 c3         1 E21      -0.141700
     24 C2C          5.5820     0.0490    -1.2570 c3         1 E21      -0.077100
     25 C26          5.4020    -1.1020     1.0180 c          1 E21       0.575100
     26 O26          4.5110    -1.1280     1.8330 o          1 E21      -0.509100
     27 C25          6.2260    -2.4050     0.8270 c3         1 E21       0.092000
     28 C2B          6.8200    -2.7700     2.1900 c3         1 E21      -0.126100
     29 O25          7.2440    -2.2860    -0.1350 oh         1 E21      -0.638000
     30 C24          5.2080    -3.4560     0.3560 c3         1 E21       0.191300
     31 O24          4.5790    -2.9110    -0.7830 oh         1 E21      -0.661000
     32 C23          5.7490    -4.8810     0.1190 c3         1 E21      -0.078700
     33 C2A          6.3030    -5.1150    -1.2820 c3         1 E21      -0.076100
     34 C22          4.6520    -5.9150     0.4740 c3         1 E21      -0.048200
     35 C21          3.4020    -5.7560    -0.3350 c2         1 E21      -0.223200
     36 C20          2.3210    -5.0820     0.0820 ce         1 E21      -0.188000
     37 C19          1.1750    -4.7670    -0.7540 ce         1 E21      -0.212000
     38 C18          0.3050    -3.8000    -0.4490 c2         1 E21      -0.166200
     39 C17         -0.7840    -3.3170    -1.3690 c3         1 E21      -0.023500
     40 C1C         -0.1600    -2.6030    -2.5840 c3         1 E21      -0.070400
     41 C1D          0.7400    -1.4200    -2.2530 c3         1 E21      -0.092100
     42 C16         -1.7750    -2.4240    -0.6180 c3         1 E21       0.180300
     43 O16         -2.1590    -3.1070     0.5600 oh         1 E21      -0.672000
     44 C15         -3.0090    -2.0490    -1.4480 c3         1 E21      -0.115400
     45 C13         -3.5740    -0.6960    -1.0350 c6         1 E21       0.174300
     46 O14         -4.9220    -0.6320    -1.4570 os         1 E21      -0.480000
     47 C8          -5.6550     0.4770    -0.9850 c6         1 E21       0.404000
     48 O9          -5.6460     0.5180     0.4150 os         1 E21      -0.487000
     49 C7          -7.0720     0.2700    -1.5150 c6         1 E21      -0.084400
     50 C6          -7.7550    -0.9010    -0.8110 c6         1 E21      -0.070400
     51 C5          -7.6720    -0.7710     0.7130 c6         1 E21      -0.087700
     52 C51         -8.5530     0.3570     1.2420 c3         1 E21      -0.084100
     53 C4          -6.1970    -0.6110     1.0840 c6         1 E21       0.179300
     54 C3          -5.9390    -0.4110     2.5670 c3         1 E21      -0.067400
     55 C2          -4.4710    -0.3650     2.9690 c3         1 E21       0.171300
     56 C1          -4.3260    -0.0200     4.4430 c3         1 E21      -0.132100
     57 O2          -3.8820    -1.6330     2.6890 oh         1 E21      -0.681000
     58 H1          -5.6020     3.1130     0.1720 hc         1 E21       0.043367
     59 H2          -5.2510     3.9410    -1.3430 hc         1 E21       0.043367
     60 H3          -6.7490     3.0590    -1.1650 hc         1 E21       0.043367
     61 H4          -5.0750     1.8080    -2.5470 hc         1 E21       0.070700
     62 H5          -3.4570     1.7550     0.0370 h1         1 E21       0.075700
     63 H6          -1.8080     0.5050    -1.1540 hc         1 E21       0.053700
     64 H7          -3.6220     0.2450    -3.6050 hc         1 E21       0.039700
     65 H8          -2.3480     1.4570    -3.4930 hc         1 E21       0.039700
     66 H9          -1.9420    -0.2380    -3.4330 hc         1 E21       0.039700
     67 H10         -0.7400     3.9610    -2.2900 ha         1 E21       0.197000
     68 H11         -0.6210     5.5700     0.3150 ha         1 E21       0.202000
     69 H12          1.1010     6.7300    -1.0890 hc         1 E21       0.061700
     70 H13          0.9060     5.4360    -3.1880 hc         1 E21       0.040700
     71 H14          2.5670     5.4820    -2.6130 hc         1 E21       0.040700
     72 H15          1.6090     4.0180    -2.4190 hc         1 E21       0.040700
     73 H16          3.1080     5.4880    -0.3460 h1         1 E21       0.036700
     74 H17          2.0600     6.9810     0.9990 ho         1 E21       0.444000
     75 H18          1.6930     3.2210    -0.3820 hc         1 E21       0.064700
     76 H19          0.1100     3.8150     1.4650 hc         1 E21       0.050033
     77 H20          1.0900     2.4300     1.8770 hc         1 E21       0.050033
     78 H21          1.4690     3.9980     2.5730 hc         1 E21       0.050033
     79 H22          3.8800     2.0100    -0.7540 hc         1 E21       0.060700
     80 H23          1.7650     1.1570     0.0990 hc         1 E21       0.046033
     81 H24          2.9570    -0.1130     0.0830 hc         1 E21       0.046033
     82 H25          2.5210     0.6390     1.6080 hc         1 E21       0.046033
     83 H26          5.8880     2.2360     0.3760 h1         1 E21       0.023700
     84 H27          5.2950     2.3870     2.4910 ho         1 E21       0.463000
     85 H28          6.8830     0.2290     0.4010 hc         1 E21       0.058700
     86 H29          5.9190     0.9740    -1.7300 hc         1 E21       0.045700
     87 H30          6.1510    -0.7700    -1.6820 hc         1 E21       0.045700
     88 H31          4.5370    -0.1020    -1.5210 hc         1 E21       0.045700
     89 H32          7.4390    -3.6640     2.1170 hc         1 E21       0.052367
     90 H33          7.4550    -1.9620     2.5620 hc         1 E21       0.052367
     91 H34          6.0470    -2.9480     2.9350 hc         1 E21       0.052367
     92 H35          8.0020    -1.8440     0.2610 ho         1 E21       0.441000
     93 H36          4.4870    -3.5260     1.1810 h1         1 E21       0.045700
     94 H37          3.7730    -3.4150    -0.9410 ho         1 E21       0.453000
     95 H38          6.5600    -5.0580     0.8330 hc         1 E21       0.052700
     96 H39          5.5370    -5.0070    -2.0500 hc         1 E21       0.038367
     97 H40          7.1070    -4.4210    -1.5150 hc         1 E21       0.038367
     98 H41          6.7000    -6.1280    -1.3580 hc         1 E21       0.038367
     99 H42          5.0620    -6.9190     0.3320 hc         1 E21       0.048200
    100 H43          4.4130    -5.8170     1.5370 hc         1 E21       0.048200
    101 H44          3.4100    -6.1550    -1.3460 ha         1 E21       0.172000
    102 H45          2.3140    -4.6670     1.0880 ha         1 E21       0.173000
    103 H46          1.0910    -5.3010    -1.6990 ha         1 E21       0.170000
    104 H47          0.4430    -3.2730     0.4910 ha         1 E21       0.179000
    105 H48         -1.3360    -4.1830    -1.7540 hc         1 E21       0.066700
    106 H49          0.4220    -3.3400    -3.1420 hc         1 E21       0.041700
    107 H50         -0.9510    -2.2820    -3.2650 hc         1 E21       0.041700
    108 H51          0.2240    -0.6410    -1.6890 hc         1 E21       0.033700
    109 H52          1.6040    -1.7300    -1.6620 hc         1 E21       0.033700
    110 H53          1.1160    -0.9610    -3.1670 hc         1 E21       0.033700
    111 H54         -1.2360    -1.5040    -0.3400 h1         1 E21       0.024700
    112 H55         -2.7840    -2.5570     1.0500 ho         1 E21       0.460000
    113 H56         -2.7990    -2.0640    -2.5190 hc         1 E21       0.067200
    114 H57         -3.7670    -2.8210    -1.2840 hc         1 E21       0.067200
    115 H58         -3.5300    -0.6340     0.0620 h1         1 E21       0.045700
    116 H59         -7.6550     1.1790    -1.3650 hc         1 E21       0.058200
    117 H60         -7.0340     0.1020    -2.5930 hc         1 E21       0.058200
    118 H61         -8.8000    -0.9590    -1.1280 hc         1 E21       0.048700
    119 H62         -7.2860    -1.8400    -1.1160 hc         1 E21       0.048700
    120 H63         -8.0160    -1.7120     1.1550 hc         1 E21       0.053700
    121 H64         -9.5760     0.2430     0.8780 hc         1 E21       0.034700
    122 H65         -8.5980     0.3570     2.3320 hc         1 E21       0.034700
    123 H66         -8.1970     1.3390     0.9290 hc         1 E21       0.034700
    124 H67         -5.6770    -1.5240     0.7600 h1         1 E21       0.057700
    125 H68         -6.4050     0.5230     2.8940 hc         1 E21       0.057200
    126 H69         -6.4350    -1.2170     3.1200 hc         1 E21       0.057200
    127 H70         -3.9690     0.4140     2.3810 h1         1 E21       0.046700
    128 H71         -3.2760     0.0140     4.7410 hc         1 E21       0.043367
    129 H72         -4.7530     0.9620     4.6500 hc         1 E21       0.043367
    130 H73         -4.8360    -0.7510     5.0730 hc         1 E21       0.043367
    131 H74         -3.0270    -1.6580     3.1310 ho         1 E21       0.445000
@<TRIPOS>BOND
     1     1     2 1   
     2     1    58 1   
     3     1    59 1   
     4     1    60 1   
     5     2     3 1   
     6     2    47 1   
     7     2    61 1   
     8     3     4 1   
     9     3     6 1   
    10     3    62 1   
    11     4     5 1   
    12     4    45 1   
    13     4    63 1   
    14     5    64 1   
    15     5    65 1   
    16     5    66 1   
    17     6     7 1   
    18     7     8 2   
    19     7     9 1   
    20     9    10 2   
    21     9    67 1   
    22    10    11 1   
    23    10    68 1   
    24    11    12 1   
    25    11    13 1   
    26    11    69 1   
    27    12    70 1   
    28    12    71 1   
    29    12    72 1   
    30    13    14 1   
    31    13    15 1   
    32    13    73 1   
    33    14    74 1   
    34    15    16 1   
    35    15    17 1   
    36    15    75 1   
    37    16    76 1   
    38    16    77 1   
    39    16    78 1   
    40    17    18 2   
    41    17    19 1   
    42    19    20 1   
    43    19    21 1   
    44    19    79 1   
    45    20    80 1   
    46    20    81 1   
    47    20    82 1   
    48    21    22 1   
    49    21    23 1   
    50    21    83 1   
    51    22    84 1   
    52    23    24 1   
    53    23    25 1   
    54    23    85 1   
    55    24    86 1   
    56    24    87 1   
    57    24    88 1   
    58    25    26 2   
    59    25    27 1   
    60    27    28 1   
    61    27    29 1   
    62    27    30 1   
    63    28    89 1   
    64    28    90 1   
    65    28    91 1   
    66    29    92 1   
    67    30    31 1   
    68    30    32 1   
    69    30    93 1   
    70    31    94 1   
    71    32    33 1   
    72    32    34 1   
    73    32    95 1   
    74    33    96 1   
    75    33    97 1   
    76    33    98 1   
    77    34    35 1   
    78    34    99 1   
    79    34   100 1   
    80    35    36 2   
    81    35   101 1   
    82    36    37 1   
    83    36   102 1   
    84    37    38 2   
    85    37   103 1   
    86    38    39 1   
    87    38   104 1   
    88    39    40 1   
    89    39    42 1   
    90    39   105 1   
    91    40    41 1   
    92    40   106 1   
    93    40   107 1   
    94    41   108 1   
    95    41   109 1   
    96    41   110 1   
    97    42    43 1   
    98    42    44 1   
    99    42   111 1   
   100    43   112 1   
   101    44    45 1   
   102    44   113 1   
   103    44   114 1   
   104    45    46 1   
   105    45   115 1   
   106    46    47 1   
   107    47    48 1   
   108    47    49 1   
   109    48    53 1   
   110    49    50 1   
   111    49   116 1   
   112    49   117 1   
   113    50    51 1   
   114    50   118 1   
   115    50   119 1   
   116    51    52 1   
   117    51    53 1   
   118    51   120 1   
   119    52   121 1   
   120    52   122 1   
   121    52   123 1   
   122    53    54 1   
   123    53   124 1   
   124    54    55 1   
   125    54   125 1   
   126    54   126 1   
   127    55    56 1   
   128    55    57 1   
   129    55   127 1   
   130    56   128 1   
   131    56   129 1   
   132    56   130 1   
   133    57   131 1   
@<TRIPOS>SUBSTRUCTURE
     1 E21         1 TEMP              0 ****  ****    0 ROOT
