@<TRIPOS>MOLECULE
E22
   65    67     1     0     0
SMALL
abcg2


@<TRIPOS>ATOM
      1 C5          -2.0990    -0.0860     0.5360 c          1 E22       0.612300
      2 O2          -1.9580    -0.6460     1.6140 o          1 E22      -0.606100
      3 C9          -3.2600     0.7770     0.2170 ce         1 E22      -0.298200
      4 C16         -4.2400     0.9680     1.1050 cf         1 E22      -0.076200
      5 C21         -5.4380     1.7830     0.9240 ca         1 E22      -0.076800
      6 C14         -5.7390     2.4440    -0.2720 ca         1 E22      -0.087000
      7 C8          -6.8860     3.2090    -0.3850 ca         1 E22      -0.115500
      8 C4          -7.7600     3.3290     0.6920 ca         1 E22      -0.096000
      9 C10         -7.4760     2.6770     1.8830 ca         1 E22      -0.115500
     10 C26         -6.3260     1.9090     1.9950 ca         1 E22      -0.087000
     11 N1          -1.2080    -0.1860    -0.4730 ns         1 E22      -0.492900
     12 C1          -0.0580    -1.0420    -0.4430 c3         1 E22       0.031700
     13 C3           1.1680    -0.2810    -0.9340 c          1 E22       0.599100
     14 O1           1.0760     0.6060    -1.7650 o          1 E22      -0.589100
     15 C2          -0.2540    -2.2840    -1.3400 c3         1 E22      -0.044100
     16 C7          -1.4420    -3.0900    -0.9060 ca         1 E22      -0.085300
     17 C12         -2.6930    -2.8820    -1.4800 ca         1 E22      -0.099000
     18 C18         -1.3230    -4.0300     0.1150 ca         1 E22      -0.099000
     19 C22         -3.8020    -3.5960    -1.0440 ca         1 E22      -0.105500
     20 C23         -2.4260    -4.7480     0.5510 ca         1 E22      -0.105500
     21 C20         -3.6710    -4.5320    -0.0270 ca         1 E22      -0.104000
     22 C6           3.7340     3.5010     1.4220 c6         1 E22      -0.092400
     23 C11          3.6280    -0.3430    -0.9030 c3         1 E22       0.112700
     24 C13          3.8970     2.3540     0.4410 c6         1 E22      -0.078400
     25 C15          5.1160     1.1550     2.3400 c          1 E22       0.566000
     26 C17          4.5990    -0.0820     0.2440 c3         1 E22      -0.080400
     27 C19          5.4290    -1.1030    -2.4170 c1         1 E22       0.259900
     28 C24          4.1350    -1.4800    -1.8140 c3         1 E22       0.221400
     29 C25          4.1370     1.0380     1.1780 c6         1 E22      -0.133700
     30 C27          4.9960     3.6580     2.2410 c6         1 E22       0.113000
     31 N2           6.4270    -0.8150    -2.9110 n1         1 E22      -0.436000
     32 N3           2.3290    -0.7060    -0.4030 ns         1 E22      -0.501900
     33 N4           5.4160     2.3820     2.7900 ns         1 E22      -0.504900
     34 O3           3.1970    -1.7210    -2.8170 oh         1 E22      -0.628000
     35 H1          -3.2860     1.2430    -0.7610 ha         1 E22       0.179000
     36 H3          -4.1540     0.4770     2.0700 ha         1 E22       0.196000
     37 H5          -5.0750     2.3640    -1.1240 ha         1 E22       0.114000
     38 H6          -7.1040     3.7150    -1.3170 ha         1 E22       0.115500
     39 H7          -8.6560     3.9290     0.5990 ha         1 E22       0.114000
     40 H8          -8.1490     2.7650     2.7260 ha         1 E22       0.115500
     41 H9          -6.1090     1.4010     2.9270 ha         1 E22       0.114000
     42 H10         -1.3910     0.3060    -1.3330 hn         1 E22       0.329500
     43 H11          0.0880    -1.3690     0.5880 h1         1 E22       0.093700
     44 H12         -0.3750    -1.9530    -2.3750 hc         1 E22       0.056700
     45 H13          0.6530    -2.8920    -1.3040 hc         1 E22       0.056700
     46 H14         -2.8010    -2.1570    -2.2780 ha         1 E22       0.107000
     47 H15         -0.3540    -4.2030     0.5720 ha         1 E22       0.107000
     48 H16         -4.7670    -3.4250    -1.5030 ha         1 E22       0.112500
     49 H17         -2.3170    -5.4790     1.3420 ha         1 E22       0.112500
     50 H18         -4.5320    -5.0940     0.3100 ha         1 E22       0.113000
     51 H19          3.5320     4.4350     0.8980 hc         1 E22       0.056200
     52 H20          2.8830     3.3110     2.0820 hc         1 E22       0.056200
     53 H21          3.5150     0.5530    -1.5160 h1         1 E22       0.103700
     54 H22          3.0060     2.2720    -0.1840 hc         1 E22       0.057200
     55 H23          4.7350     2.5580    -0.2350 hc         1 E22       0.057200
     56 H24          4.7350    -1.0050     0.8120 hc         1 E22       0.066700
     57 H25          5.5770     0.1820    -0.1680 hc         1 E22       0.066700
     58 H26          4.3200    -2.3660    -1.1940 h1         1 E22       0.054700
     59 H27          3.1900     0.7320     1.6400 hc         1 E22       0.077700
     60 H28          5.7940     4.0800     1.6220 h1         1 E22       0.041200
     61 H29          4.8370     4.3490     3.0700 h1         1 E22       0.041200
     62 H30          2.2960    -1.4410     0.2880 hn         1 E22       0.315500
     63 H31          6.0740     2.4120     3.5560 hn         1 E22       0.316500
     64 H32          3.2870    -2.6300    -3.1200 ho         1 E22       0.456000
     65 O4           5.5850     0.1510     2.8670 o          1 E22      -0.582000
@<TRIPOS>BOND
     1     1     2 2   
     2     1     3 1   
     3     1    11 1   
     4     3     4 2   
     5     3    35 1   
     6     4     5 1   
     7     4    36 1   
     8     5     6 ar  
     9     5    10 ar  
    10     6     7 ar  
    11     6    37 1   
    12     7     8 ar  
    13     7    38 1   
    14     8     9 ar  
    15     8    39 1   
    16     9    10 ar  
    17     9    40 1   
    18    10    41 1   
    19    11    12 1   
    20    11    42 1   
    21    12    13 1   
    22    12    15 1   
    23    12    43 1   
    24    13    14 2   
    25    13    32 1   
    26    15    16 1   
    27    15    44 1   
    28    15    45 1   
    29    16    17 ar  
    30    16    18 ar  
    31    17    19 ar  
    32    17    46 1   
    33    18    20 ar  
    34    18    47 1   
    35    19    21 ar  
    36    19    48 1   
    37    20    21 ar  
    38    20    49 1   
    39    21    50 1   
    40    22    24 1   
    41    22    30 1   
    42    22    51 1   
    43    22    52 1   
    44    23    26 1   
    45    23    28 1   
    46    23    32 1   
    47    23    53 1   
    48    24    29 1   
    49    24    54 1   
    50    24    55 1   
    51    25    29 1   
    52    25    33 1   
    53    25    65 2   
    54    26    29 1   
    55    26    56 1   
    56    26    57 1   
    57    27    28 1   
    58    27    31 3   
    59    28    34 1   
    60    28    58 1   
    61    29    59 1   
    62    30    33 1   
    63    30    60 1   
    64    30    61 1   
    65    32    62 1   
    66    33    63 1   
    67    34    64 1   
@<TRIPOS>SUBSTRUCTURE
     1 E22         1 TEMP              0 ****  ****    0 ROOT
