@<TRIPOS>MOLECULE
E22
   65    67     1     0     0
SMALL
No Charge or Current Charge


@<TRIPOS>ATOM
      1 C5          -2.1920    -0.0660     0.5400 c          1 E22       0.612300
      2 O2          -2.0920    -0.6480     1.6100 o          1 E22      -0.606100
      3 C9          -3.3460     0.8040     0.1970 ce         1 E22      -0.298200
      4 C16         -4.4110     1.0350     1.0210 cf         1 E22      -0.076200
      5 C21         -5.6100     1.8700     0.7940 ca         1 E22      -0.076800
      6 C14         -5.8030     2.5860    -0.4080 ca         1 E22      -0.087000
      7 C8          -6.9540     3.3710    -0.5940 ca         1 E22      -0.115500
      8 C4          -7.9250     3.4510     0.4180 ca         1 E22      -0.096000
      9 C10         -7.7430     2.7430     1.6160 ca         1 E22      -0.115500
     10 C26         -6.5920     1.9580     1.8030 ca         1 E22      -0.087000
     11 N1          -1.2380    -0.1500    -0.4450 ns         1 E22      -0.492900
     12 C1          -0.0250    -1.0010    -0.3900 c3         1 E22       0.031700
     13 C3           1.2010    -0.2440    -0.9710 c          1 E22       0.599100
     14 O1           1.1000     0.7860    -1.6290 o          1 E22      -0.589100
     15 C2          -0.2540    -2.3450    -1.1320 c3         1 E22      -0.044100
     16 C7          -1.4450    -3.1370    -0.6030 ca         1 E22      -0.085300
     17 C12         -2.6870    -3.0880    -1.2680 ca         1 E22      -0.099000
     18 C18         -1.3140    -3.9220     0.5590 ca         1 E22      -0.099000
     19 C22         -3.7850    -3.8130    -0.7740 ca         1 E22      -0.105500
     20 C23         -2.4120    -4.6490     1.0520 ca         1 E22      -0.105500
     21 C20         -3.6480    -4.5940     0.3860 ca         1 E22      -0.104000
     22 C6           3.7480     3.3340     1.7530 c6         1 E22      -0.092400
     23 C11          3.7270    -0.3080    -1.1600 c3         1 E22       0.112700
     24 C13          3.8000     2.2930     0.6200 c6         1 E22      -0.078400
     25 C15          5.1310     0.8850     2.3730 c          1 E22       0.566000
     26 C17          4.6780    -0.0710     0.0510 c3         1 E22      -0.080400
     27 C19          5.5090    -0.6330    -2.9230 c1         1 E22       0.259900
     28 C24          4.3390    -1.2460    -2.2550 c3         1 E22       0.221400
     29 C25          4.1370     0.8780     1.1770 c6         1 E22      -0.133700
     30 C27          5.1170     3.4170     2.4570 c6         1 E22       0.113000
     31 N2           6.4280    -0.1680    -3.4710 n1         1 E22      -0.436000
     32 N3           2.4250    -0.8110    -0.6790 ns         1 E22      -0.501900
     33 N4           5.6550     2.0890     2.7840 ns         1 E22      -0.504900
     34 O3           3.3300    -1.6170    -3.2220 oh         1 E22      -0.628000
     35 H1          -3.3120     1.2700    -0.7840 ha         1 E22       0.179000
     36 H3          -4.3970     0.5400     1.9950 ha         1 E22       0.196000
     37 H5          -5.0680     2.5410    -1.2070 ha         1 E22       0.114000
     38 H6          -7.0940     3.9180    -1.5230 ha         1 E22       0.115500
     39 H7          -8.8160     4.0590     0.2730 ha         1 E22       0.114000
     40 H8          -8.4930     2.8030     2.4020 ha         1 E22       0.115500
     41 H9          -6.4660     1.4160     2.7380 ha         1 E22       0.114000
     42 H10         -1.3900     0.4090    -1.2760 hn         1 E22       0.329500
     43 H11          0.2100    -1.2170     0.6610 h1         1 E22       0.093700
     44 H12         -0.3850    -2.1400    -2.2020 hc         1 E22       0.056700
     45 H13          0.6520    -2.9580    -1.0570 hc         1 E22       0.056700
     46 H14         -2.8040    -2.4830    -2.1640 ha         1 E22       0.107000
     47 H15         -0.3620    -3.9670     1.0830 ha         1 E22       0.107000
     48 H16         -4.7420    -3.7690    -1.2900 ha         1 E22       0.112500
     49 H17         -2.3040    -5.2520     1.9510 ha         1 E22       0.112500
     50 H18         -4.4970    -5.1560     0.7690 ha         1 E22       0.113000
     51 H19          3.4720     4.3210     1.3560 hc         1 E22       0.056200
     52 H20          2.9710     3.0570     2.4790 hc         1 E22       0.056200
     53 H21          3.5620     0.6660    -1.6400 h1         1 E22       0.103700
     54 H22          2.8400     2.2740     0.0860 hc         1 E22       0.057200
     55 H23          4.5590     2.6030    -0.1120 hc         1 E22       0.057200
     56 H24          4.9140    -1.0510     0.4860 hc         1 E22       0.066700
     57 H25          5.6330     0.3290    -0.3130 hc         1 E22       0.066700
     58 H26          4.6970    -2.1520    -1.7490 h1         1 E22       0.054700
     59 H27          3.2250     0.4090     1.5700 hc         1 E22       0.077700
     60 H28          5.8380     3.9220     1.7990 h1         1 E22       0.041200
     61 H29          5.0310     4.0080     3.3800 h1         1 E22       0.041200
     62 H30          2.4130    -1.6660    -0.1360 hn         1 E22       0.315500
     63 H31          6.3320     2.0290     3.5350 hn         1 E22       0.316500
     64 H32          3.7450    -2.2550    -3.8440 ho         1 E22       0.456000
     65 O4           5.4460    -0.1410     2.9550 o          1 E22      -0.582000
@<TRIPOS>BOND
     1     1     2 2   
     2     1     3 1   
     3     1    11 1   
     4     3     4 2   
     5     3    35 1   
     6     4     5 1   
     7     4    36 1   
     8     5     6 ar  
     9     5    10 ar  
    10     6     7 ar  
    11     6    37 1   
    12     7     8 ar  
    13     7    38 1   
    14     8     9 ar  
    15     8    39 1   
    16     9    10 ar  
    17     9    40 1   
    18    10    41 1   
    19    11    12 1   
    20    11    42 1   
    21    12    13 1   
    22    12    15 1   
    23    12    43 1   
    24    13    14 2   
    25    13    32 1   
    26    15    16 1   
    27    15    44 1   
    28    15    45 1   
    29    16    17 ar  
    30    16    18 ar  
    31    17    19 ar  
    32    17    46 1   
    33    18    20 ar  
    34    18    47 1   
    35    19    21 ar  
    36    19    48 1   
    37    20    21 ar  
    38    20    49 1   
    39    21    50 1   
    40    22    24 1   
    41    22    30 1   
    42    22    51 1   
    43    22    52 1   
    44    23    26 1   
    45    23    28 1   
    46    23    32 1   
    47    23    53 1   
    48    24    29 1   
    49    24    54 1   
    50    24    55 1   
    51    25    29 1   
    52    25    33 1   
    53    25    65 2   
    54    26    29 1   
    55    26    56 1   
    56    26    57 1   
    57    27    28 1   
    58    27    31 3   
    59    28    34 1   
    60    28    58 1   
    61    29    59 1   
    62    30    33 1   
    63    30    60 1   
    64    30    61 1   
    65    32    62 1   
    66    33    63 1   
    67    34    64 1   
@<TRIPOS>SUBSTRUCTURE
     1 E22         1 TEMP              0 ****  ****    0 ROOT
