@<TRIPOS>MOLECULE
E23
   44    45     1     0     0
SMALL
bcc


@<TRIPOS>ATOM
      1 OAD         -1.3850    -1.5680    -0.0810 o          1 E23      -0.579100
      2 CAR         -1.3690    -0.5740     0.6270 c          1 E23       0.676700
      3 CAU         -2.4250     0.4870     0.4940 ca         1 E23      -0.100600
      4 CAJ         -3.2680     0.7070     1.5770 ca         1 E23      -0.117000
      5 CAH         -4.3270     1.5990     1.4810 ca         1 E23      -0.103000
      6 CAI         -4.5410     2.2890     0.2990 ca         1 E23      -0.121000
      7 CAM         -3.6930     2.0920    -0.7810 ca         1 E23      -0.086000
      8 CAV         -2.6380     1.1930    -0.6930 ca         1 E23      -0.156300
      9 CAX         -1.7310     1.0110    -1.8760 c3         1 E23       0.721200
     10 FAG         -2.0360    -0.0800    -2.5890 f          1 E23      -0.229300
     11 FAF         -1.8000     2.0470    -2.7200 f          1 E23      -0.229300
     12 FAE         -0.4480     0.9010    -1.5090 f          1 E23      -0.229300
     13 NAQ         -0.4820    -0.3510     1.6050 ns         1 E23      -0.560900
     14 CAP          0.6040    -1.2550     1.9310 c3         1 E23       0.151300
     15 CAS          1.8970    -0.8790     1.2540 ca         1 E23      -0.126300
     16 CAL          2.0910    -1.1190    -0.1050 ca         1 E23      -0.109500
     17 CAO          3.2720    -0.7520    -0.7260 ca         1 E23      -0.130500
     18 CAT          4.3100    -0.1300    -0.0240 ca         1 E23      -0.055300
     19 CAW          5.5950     0.2500    -0.7500 c3         1 E23      -0.001700
     20 CAA          5.2620     1.2010    -1.9080 c3         1 E23      -0.082767
     21 CAC          6.5980     0.9460     0.1680 c3         1 E23      -0.082767
     22 CAB          6.2510    -1.0210    -1.3100 c3         1 E23      -0.082767
     23 CAN          4.1070     0.1040     1.3330 ca         1 E23      -0.130500
     24 CAK          2.9210    -0.2650     1.9600 ca         1 E23      -0.109500
     25 H1          -3.1080     0.1640     2.4990 ha         1 E23       0.143000
     26 H2          -4.9800     1.7520     2.3290 ha         1 E23       0.140000
     27 H3          -5.3620     2.9870     0.2140 ha         1 E23       0.142000
     28 H4          -3.8650     2.6540    -1.6890 ha         1 E23       0.152000
     29 H5          -0.4970     0.5410     2.0740 hn         1 E23       0.317500
     30 H6           0.7310    -1.2440     3.0140 h1         1 E23       0.062200
     31 H7           0.3030    -2.2640     1.6530 h1         1 E23       0.062200
     32 H8           1.3140    -1.6050    -0.6820 ha         1 E23       0.135500
     33 H9           3.3840    -0.9620    -1.7830 ha         1 E23       0.131000
     34 H10          4.7800     2.1110    -1.5460 hc         1 E23       0.035589
     35 H11          6.1750     1.4930    -2.4320 hc         1 E23       0.035589
     36 H12          4.5960     0.7400    -2.6390 hc         1 E23       0.035589
     37 H13          6.9070     0.3120     1.0010 hc         1 E23       0.035589
     38 H14          7.4970     1.1960    -0.3990 hc         1 E23       0.035589
     39 H15          6.2010     1.8760     0.5800 hc         1 E23       0.035589
     40 H16          5.6060    -1.5330    -2.0240 hc         1 E23       0.035589
     41 H17          7.1810    -0.7700    -1.8250 hc         1 E23       0.035589
     42 H18          6.4890    -1.7240    -0.5100 hc         1 E23       0.035589
     43 H19          4.8730     0.5800     1.9290 ha         1 E23       0.131000
     44 H20          2.8010    -0.0670     3.0190 ha         1 E23       0.135500
@<TRIPOS>BOND
     1     1     2 2   
     2     2     3 1   
     3     2    13 1   
     4     3     4 ar  
     5     3     8 ar  
     6     4     5 ar  
     7     4    25 1   
     8     5     6 ar  
     9     5    26 1   
    10     6     7 ar  
    11     6    27 1   
    12     7     8 ar  
    13     7    28 1   
    14     8     9 1   
    15     9    10 1   
    16     9    11 1   
    17     9    12 1   
    18    13    14 1   
    19    13    29 1   
    20    14    15 1   
    21    14    30 1   
    22    14    31 1   
    23    15    16 ar  
    24    15    24 ar  
    25    16    17 ar  
    26    16    32 1   
    27    17    18 ar  
    28    17    33 1   
    29    18    19 1   
    30    18    23 ar  
    31    19    20 1   
    32    19    21 1   
    33    19    22 1   
    34    20    34 1   
    35    20    35 1   
    36    20    36 1   
    37    21    37 1   
    38    21    38 1   
    39    21    39 1   
    40    22    40 1   
    41    22    41 1   
    42    22    42 1   
    43    23    24 ar  
    44    23    43 1   
    45    24    44 1   
@<TRIPOS>SUBSTRUCTURE
     1 E23         1 TEMP              0 ****  ****    0 ROOT
