@<TRIPOS>MOLECULE
E23
   44    45     1     0     0
SMALL
No Charge or Current Charge


@<TRIPOS>ATOM
      1 OAD         -1.3530    -1.5150    -0.3270 o          1 E23      -0.579100
      2 CAR         -1.3680    -0.5900     0.4730 c          1 E23       0.609700
      3 CAU         -2.3780     0.5470     0.4220 ca         1 E23      -0.100600
      4 CAJ         -2.8940     1.0370     1.6480 ca         1 E23      -0.099000
      5 CAH         -3.8520     2.0600     1.6790 ca         1 E23      -0.085000
      6 CAI         -4.3170     2.6140     0.4830 ca         1 E23      -0.103000
      7 CAM         -3.8170     2.1540    -0.7440 ca         1 E23      -0.068000
      8 CAV         -2.8400     1.1290    -0.8030 ca         1 E23      -0.156300
      9 CAX         -2.2870     0.7140    -2.1850 c3         1 E23       0.357300
     10 FAG         -2.7790    -0.4790    -2.5880 f          1 E23      -0.108000
     11 FAF         -2.5990     1.5980    -3.1610 f          1 E23      -0.108000
     12 FAE         -0.9370     0.6230    -2.1930 f          1 E23      -0.108000
     13 NAQ         -0.5030    -0.5600     1.5460 ns         1 E23      -0.493900
     14 CAP          0.5660    -1.5290     1.7830 c3         1 E23       0.151300
     15 CAS          1.8770    -1.0590     1.1710 ca         1 E23      -0.126300
     16 CAL          2.1730    -1.3370    -0.1740 ca         1 E23      -0.091500
     17 CAO          3.3790    -0.8950    -0.7430 ca         1 E23      -0.112500
     18 CAT          4.3240    -0.1630     0.0150 ca         1 E23      -0.055300
     19 CAW          5.6430     0.3080    -0.6550 c3         1 E23      -0.001700
     20 CAA          5.3070     1.2350    -1.8540 c3         1 E23      -0.082767
     21 CAC          6.5700     1.0970     0.3130 c3         1 E23      -0.082767
     22 CAB          6.4290    -0.9300    -1.1650 c3         1 E23      -0.082767
     23 CAN          4.0100     0.1110     1.3700 ca         1 E23      -0.112500
     24 CAK          2.8030    -0.3320     1.9380 ca         1 E23      -0.091500
     25 H1          -2.5780     0.6040     2.5950 ha         1 E23       0.125000
     26 H2          -4.2410     2.4140     2.6310 ha         1 E23       0.122000
     27 H3          -5.0650     3.4040     0.5040 ha         1 E23       0.124000
     28 H4          -4.1990     2.6140    -1.6540 ha         1 E23       0.134000
     29 H5          -0.5670     0.2430     2.1580 hn         1 E23       0.317500
     30 H6           0.6880    -1.6590     2.8670 h1         1 E23       0.062200
     31 H7           0.2850    -2.5060     1.3650 h1         1 E23       0.062200
     32 H8           1.4650    -1.8940    -0.7840 ha         1 E23       0.117500
     33 H9           3.5730    -1.1280    -1.7860 ha         1 E23       0.113000
     34 H10          4.7180     2.0980    -1.5220 hc         1 E23       0.035589
     35 H11          6.2210     1.6110    -2.3290 hc         1 E23       0.035589
     36 H12          4.7300     0.7090    -2.6230 hc         1 E23       0.035589
     37 H13          6.8640     0.4800     1.1710 hc         1 E23       0.035589
     38 H14          7.4900     1.4100    -0.1960 hc         1 E23       0.035589
     39 H15          6.0760     2.0020     0.6850 hc         1 E23       0.035589
     40 H16          5.8660    -1.4830    -1.9260 hc         1 E23       0.035589
     41 H17          7.3840    -0.6310    -1.6140 hc         1 E23       0.035589
     42 H18          6.6450    -1.6180    -0.3390 hc         1 E23       0.035589
     43 H19          4.6890     0.6680     2.0080 ha         1 E23       0.113000
     44 H20          2.5870    -0.1050     2.9800 ha         1 E23       0.117500
@<TRIPOS>BOND
     1     1     2 2   
     2     2     3 1   
     3     2    13 1   
     4     3     4 ar  
     5     3     8 ar  
     6     4     5 ar  
     7     4    25 1   
     8     5     6 ar  
     9     5    26 1   
    10     6     7 ar  
    11     6    27 1   
    12     7     8 ar  
    13     7    28 1   
    14     8     9 1   
    15     9    10 1   
    16     9    11 1   
    17     9    12 1   
    18    13    14 1   
    19    13    29 1   
    20    14    15 1   
    21    14    30 1   
    22    14    31 1   
    23    15    16 ar  
    24    15    24 ar  
    25    16    17 ar  
    26    16    32 1   
    27    17    18 ar  
    28    17    33 1   
    29    18    19 1   
    30    18    23 ar  
    31    19    20 1   
    32    19    21 1   
    33    19    22 1   
    34    20    34 1   
    35    20    35 1   
    36    20    36 1   
    37    21    37 1   
    38    21    38 1   
    39    21    39 1   
    40    22    40 1   
    41    22    41 1   
    42    22    42 1   
    43    23    24 ar  
    44    23    43 1   
    45    24    44 1   
@<TRIPOS>SUBSTRUCTURE
     1 E23         1 TEMP              0 ****  ****    0 ROOT
