@<TRIPOS>MOLECULE
E24
   32    33     1     0     0
SMALL
abcg2


@<TRIPOS>ATOM
      1 CLF         -1.6030     0.0120     1.9890 cl         1 E24      -0.179000
      2 CAR         -2.6130     0.1080     0.5870 ca         1 E24       0.137000
      3 CAM         -3.8580    -0.4970     0.6420 ca         1 E24      -0.102000
      4 CAQ         -4.6830    -0.4170    -0.4680 ca         1 E24       0.130000
      5 CLE         -6.2400    -1.1670    -0.4110 cl         1 E24      -0.188000
      6 CAK         -4.2840     0.2490    -1.6130 ca         1 E24      -0.104000
      7 CAL         -3.0310     0.8420    -1.6350 ca         1 E24      -0.087000
      8 CAS         -2.1700     0.7890    -0.5450 ca         1 E24      -0.106300
      9 CAN         -0.8160     1.4420    -0.6160 c3         1 E24       0.149300
     10 NAO          0.2440     0.4590    -0.5880 ns         1 E24      -0.498900
     11 CAP          1.2970     0.5170     0.2410 c          1 E24       0.614700
     12 OAA          1.5120     1.4250     1.0250 o          1 E24      -0.569100
     13 CAT          2.1930    -0.6870     0.1780 ca         1 E24      -0.101600
     14 CAI          1.6380    -1.9220     0.4900 ca         1 E24      -0.097000
     15 CAG          2.4290    -3.0600     0.5530 ca         1 E24      -0.086000
     16 CAH          3.7850    -2.9700     0.2900 ca         1 E24      -0.102000
     17 CAJ          4.3470    -1.7450    -0.0410 ca         1 E24      -0.068000
     18 CAU          3.5610    -0.6020    -0.0950 ca         1 E24      -0.156300
     19 CAV          4.2000     0.7070    -0.4600 c3         1 E24       0.358300
     20 FAC          4.4920     1.4460     0.6170 f          1 E24      -0.108667
     21 FAD          5.3480     0.5310    -1.1240 f          1 E24      -0.108667
     22 FAB          3.4130     1.4490    -1.2490 f          1 E24      -0.108667
     23 H1          -4.1780    -1.0170     1.5350 ha         1 E24       0.146000
     24 H2          -4.9330     0.3060    -2.4760 ha         1 E24       0.136000
     25 H3          -2.7120     1.3620    -2.5300 ha         1 E24       0.123000
     26 H4          -0.7540     2.0360    -1.5290 h1         1 E24       0.073200
     27 H5          -0.6690     2.1250     0.2200 h1         1 E24       0.073200
     28 H6           0.2030    -0.2860    -1.2660 hn         1 E24       0.319500
     29 H7           0.5800    -1.9950     0.7060 ha         1 E24       0.129000
     30 H8           1.9830    -4.0120     0.8090 ha         1 E24       0.123000
     31 H9           4.4120    -3.8500     0.3320 ha         1 E24       0.124000
     32 H10          5.4050    -1.6980    -0.2580 ha         1 E24       0.134000
@<TRIPOS>BOND
     1     1     2 1   
     2     2     3 ar  
     3     2     8 ar  
     4     3     4 ar  
     5     3    23 1   
     6     4     5 1   
     7     4     6 ar  
     8     6     7 ar  
     9     6    24 1   
    10     7     8 ar  
    11     7    25 1   
    12     8     9 1   
    13     9    10 1   
    14     9    26 1   
    15     9    27 1   
    16    10    11 1   
    17    10    28 1   
    18    11    12 2   
    19    11    13 1   
    20    13    14 ar  
    21    13    18 ar  
    22    14    15 ar  
    23    14    29 1   
    24    15    16 ar  
    25    15    30 1   
    26    16    17 ar  
    27    16    31 1   
    28    17    18 ar  
    29    17    32 1   
    30    18    19 1   
    31    19    20 1   
    32    19    21 1   
    33    19    22 1   
@<TRIPOS>SUBSTRUCTURE
     1 E24         1 TEMP              0 ****  ****    0 ROOT
