@<TRIPOS>MOLECULE
E24
   32    33     1     0     0
SMALL
No Charge or Current Charge


@<TRIPOS>ATOM
      1 ClF         -2.2810    -0.0150     2.3490 cl         1 E24      -0.179000
      2 CAR         -2.9950     0.1130     0.7410 ca         1 E24       0.137000
      3 CAM         -4.2620    -0.4520     0.5230 ca         1 E24      -0.102000
      4 CAQ         -4.8570    -0.3760    -0.7450 ca         1 E24       0.130000
      5 ClE         -6.4430    -1.0870    -1.0150 cl         1 E24      -0.188000
      6 CAK         -4.1870     0.2630    -1.8000 ca         1 E24      -0.104000
      7 CAL         -2.9190     0.8300    -1.5860 ca         1 E24      -0.087000
      8 CAS         -2.3140     0.7620    -0.3140 ca         1 E24      -0.106300
      9 CAN         -0.9380     1.3820    -0.1060 c3         1 E24       0.149300
     10 NAO          0.1100     0.3640    -0.1350 ns         1 E24      -0.498900
     11 CAP          1.4350     0.6030     0.1500 c          1 E24       0.614700
     12 OAA          1.8160     1.7230     0.4580 o          1 E24      -0.569100
     13 CAT          2.3370    -0.6250     0.1400 ca         1 E24      -0.101600
     14 CAI          1.7840    -1.8600     0.5630 ca         1 E24      -0.097000
     15 CAG          2.5590    -3.0270     0.6130 ca         1 E24      -0.086000
     16 CAH          3.9070    -2.9840     0.2440 ca         1 E24      -0.102000
     17 CAJ          4.4780    -1.7780    -0.1840 ca         1 E24      -0.068000
     18 CAU          3.7150    -0.5860    -0.2550 ca         1 E24      -0.156300
     19 CAV          4.3950     0.6950    -0.7910 c3         1 E24       0.358300
     20 FAC          4.6610     1.5760     0.2000 f          1 E24      -0.108667
     21 FAD          5.5770     0.4450    -1.4000 f          1 E24      -0.108667
     22 FAB          3.6370     1.3320    -1.7130 f          1 E24      -0.108667
     23 H1          -4.7820    -0.9510     1.3360 ha         1 E24       0.146000
     24 H2          -4.6510     0.3180    -2.7820 ha         1 E24       0.136000
     25 H3          -2.4070     1.3220    -2.4110 ha         1 E24       0.123000
     26 H4          -0.7360     2.1190    -0.8940 h1         1 E24       0.073200
     27 H5          -0.9040     1.9110     0.8560 h1         1 E24       0.073200
     28 H6          -0.1410    -0.5810    -0.3950 hn         1 E24       0.319500
     29 H7           0.7480    -1.9220     0.8910 ha         1 E24       0.129000
     30 H8           2.1160    -3.9620     0.9500 ha         1 E24       0.123000
     31 H9           4.5110    -3.8870     0.2880 ha         1 E24       0.124000
     32 H10          5.5290    -1.7850    -0.4660 ha         1 E24       0.134000
@<TRIPOS>BOND
     1     1     2 1   
     2     2     3 ar  
     3     2     8 ar  
     4     3     4 ar  
     5     3    23 1   
     6     4     5 1   
     7     4     6 ar  
     8     6     7 ar  
     9     6    24 1   
    10     7     8 ar  
    11     7    25 1   
    12     8     9 1   
    13     9    10 1   
    14     9    26 1   
    15     9    27 1   
    16    10    11 1   
    17    10    28 1   
    18    11    12 2   
    19    11    13 1   
    20    13    14 ar  
    21    13    18 ar  
    22    14    15 ar  
    23    14    29 1   
    24    15    16 ar  
    25    15    30 1   
    26    16    17 ar  
    27    16    31 1   
    28    17    18 ar  
    29    17    32 1   
    30    18    19 1   
    31    19    20 1   
    32    19    21 1   
    33    19    22 1   
@<TRIPOS>SUBSTRUCTURE
     1 E24         1 TEMP              0 ****  ****    0 ROOT
