@<TRIPOS>MOLECULE
E26
   55    56     1     0     0
SMALL
abcg2


@<TRIPOS>ATOM
      1 C01          7.4480     1.2020     0.3720 c3         1 E26      -0.111100
      2 C02          6.2640     0.2540     0.3290 c3         1 E26       0.230800
      3 C04          3.8460     0.4000    -0.1690 ca         1 E26       0.406000
      4 C05          2.7480     1.1900    -0.5720 ca         1 E26      -0.248000
      5 C06          1.5020     0.6400    -0.7760 ca         1 E26       0.094200
      6 C07          0.3980     1.5650    -1.1200 ce         1 E26      -0.177200
      7 C08          0.0260     2.5250    -0.2780 c2         1 E26      -0.191200
      8 C09         -1.0400     3.5370    -0.5350 c3         1 E26      -0.078200
      9 C10         -2.2400     3.4920     0.4250 c3         1 E26       0.192300
     10 C11         -3.1900     2.3470     0.1140 c3         1 E26       0.084300
     11 C12         -2.7360     0.9080     0.3820 c          1 E26       0.562300
     12 C13         -3.4680    -0.0770    -0.4370 ce         1 E26      -0.311200
     13 C14         -3.3890    -1.4090    -0.3820 c2         1 E26      -0.113200
     14 C15         -2.6920    -2.3220     0.5810 c3         1 E26      -0.063500
     15 C16         -3.7680    -3.2540     1.1520 c3         1 E26      -0.086100
     16 C17         -1.5520    -3.0920    -0.1250 c3         1 E26       0.197300
     17 C18         -1.2310    -4.4450     0.4790 c3         1 E26      -0.099100
     18 C20         -0.0290    -1.3340    -0.8530 c          1 E26       0.641700
     19 C21          1.2860    -0.7430    -0.5630 ca         1 E26      -0.286600
     20 C22          2.3680    -1.5140    -0.0960 ca         1 E26       0.250100
     21 C23          3.6310    -0.9590     0.0710 ca         1 E26      -0.268000
     22 N03          5.0580     0.9720    -0.0080 nu         1 E26      -0.977200
     23 O19         -0.3250    -2.3350    -0.0080 os         1 E26      -0.492100
     24 O24          2.2740    -2.8240     0.1850 oh         1 E26      -0.545100
     25 O25         -0.7650    -0.9960    -1.7450 o          1 E26      -0.492000
     26 O26         -1.9150     0.6160     1.2230 o          1 E26      -0.477100
     27 O27         -4.3720     2.5010     0.8850 oh         1 E26      -0.640000
     28 O28         -1.8660     3.4700     1.7780 oh         1 E26      -0.620000
     29 H011         7.3070     1.9750     1.1280 hc         1 E26       0.044033
     30 H013         8.3570     0.6560     0.6150 hc         1 E26       0.044033
     31 H012         7.5970     1.6900    -0.5930 hc         1 E26       0.044033
     32 H022         6.4530    -0.5390    -0.4030 h1         1 E26       0.043200
     33 H021         6.1540    -0.2370     1.3010 h1         1 E26       0.043200
     34 H051         2.8880     2.2520    -0.7300 ha         1 E26       0.114000
     35 H071        -0.1130     1.4400    -2.0670 ha         1 E26       0.196000
     36 H081         0.5290     2.5990     0.6810 ha         1 E26       0.186000
     37 H091        -0.5950     4.5340    -0.4480 hc         1 E26       0.046700
     38 H092        -1.4060     3.4610    -1.5630 hc         1 E26       0.046700
     39 H101        -2.8310     4.3950     0.2090 h1         1 E26       0.027700
     40 H111        -3.4160     2.4430    -0.9550 h1         1 E26       0.039700
     41 H131        -4.0960     0.3410    -1.2160 ha         1 E26       0.170000
     42 H141        -3.9630    -1.9460    -1.1350 ha         1 E26       0.162000
     43 H151        -2.2540    -1.7630     1.4070 hc         1 E26       0.100700
     44 H163        -4.2120    -3.8850     0.3800 hc         1 E26       0.038367
     45 H161        -3.3660    -3.8980     1.9320 hc         1 E26       0.038367
     46 H162        -4.5700    -2.6630     1.5960 hc         1 E26       0.038367
     47 H171        -1.7900    -3.2270    -1.1840 h1         1 E26       0.059700
     48 H181        -2.0800    -5.1190     0.3820 hc         1 E26       0.048700
     49 H183        -0.3960    -4.9040    -0.0500 hc         1 E26       0.048700
     50 H182        -0.9760    -4.3710     1.5370 hc         1 E26       0.048700
     51 H231         4.4340    -1.6040     0.4040 ha         1 E26       0.130000
     52 H031         5.1440     1.9500    -0.2300 hn         1 E26       0.490000
     53 H241         1.3400    -3.0790     0.2230 ho         1 E26       0.492000
     54 H271        -5.1270     2.2300     0.3540 ho         1 E26       0.440000
     55 H281        -1.5210     4.3380     2.0040 ho         1 E26       0.437000
@<TRIPOS>BOND
     1     1     2 1   
     2     1    29 1   
     3     1    30 1   
     4     1    31 1   
     5     2    22 1   
     6     2    32 1   
     7     2    33 1   
     8     3     4 ar  
     9     3    21 ar  
    10     3    22 1   
    11     4     5 ar  
    12     4    34 1   
    13     5     6 1   
    14     5    19 ar  
    15     6     7 2   
    16     6    35 1   
    17     7     8 1   
    18     7    36 1   
    19     8     9 1   
    20     8    37 1   
    21     8    38 1   
    22     9    10 1   
    23     9    28 1   
    24     9    39 1   
    25    10    11 1   
    26    10    27 1   
    27    10    40 1   
    28    11    12 1   
    29    11    26 2   
    30    12    13 2   
    31    12    41 1   
    32    13    14 1   
    33    13    42 1   
    34    14    15 1   
    35    14    16 1   
    36    14    43 1   
    37    15    44 1   
    38    15    45 1   
    39    15    46 1   
    40    16    17 1   
    41    16    23 1   
    42    16    47 1   
    43    17    48 1   
    44    17    49 1   
    45    17    50 1   
    46    18    19 1   
    47    18    23 1   
    48    18    25 2   
    49    19    20 ar  
    50    20    21 ar  
    51    20    24 1   
    52    21    51 1   
    53    22    52 1   
    54    24    53 1   
    55    27    54 1   
    56    28    55 1   
@<TRIPOS>SUBSTRUCTURE
     1 E26         1 TEMP              0 ****  ****    0 ROOT
