@<TRIPOS>MOLECULE
E26
   55    56     1     0     0
SMALL
No Charge or Current Charge


@<TRIPOS>ATOM
      1 C01          7.3030     1.5350     0.6010 c3         1 E26      -0.111100
      2 C02          6.2650     0.4180     0.4130 c3         1 E26       0.230800
      3 C04          3.7740     0.3120    -0.1960 ca         1 E26       0.406000
      4 C05          2.6470     1.0430    -0.5790 ca         1 E26      -0.248000
      5 C06          1.4300     0.4010    -0.8660 ca         1 E26       0.094200
      6 C07          0.2380     1.2370    -1.1920 ce         1 E26      -0.177200
      7 C08         -0.0880     2.3540    -0.5030 c2         1 E26      -0.191200
      8 C09         -1.2680     3.2820    -0.7670 c3         1 E26      -0.078200
      9 C10         -2.1950     3.5500     0.4580 c3         1 E26       0.192300
     10 C11         -3.2940     2.4640     0.7060 c3         1 E26       0.084300
     11 C12         -2.7320     1.0060     0.7650 c          1 E26       0.562300
     12 C13         -2.9200     0.1980    -0.4890 ce         1 E26      -0.311200
     13 C14         -2.9190    -1.1520    -0.6440 c2         1 E26      -0.113200
     14 C15         -2.6620    -2.2680     0.3620 c3         1 E26      -0.063500
     15 C16         -4.0110    -2.9600     0.6740 c3         1 E26      -0.086100
     16 C17         -1.5570    -3.2570    -0.1450 c3         1 E26       0.197300
     17 C18         -1.3840    -4.5150     0.7330 c3         1 E26      -0.099100
     18 C20          0.0960    -1.7360    -1.0970 c          1 E26       0.641700
     19 C21          1.3570    -1.0060    -0.7700 ca         1 E26      -0.286600
     20 C22          2.4840    -1.7270    -0.3390 ca         1 E26       0.250100
     21 C23          3.6880    -1.0760    -0.0680 ca         1 E26      -0.268000
     22 N03          4.9570     0.9940     0.0710 nu         1 E26      -0.977200
     23 O19         -0.2790    -2.5890    -0.0890 os         1 E26      -0.492100
     24 O24          2.4210    -3.0740    -0.1630 oh         1 E26      -0.545100
     25 O25         -0.4760    -1.6340    -2.1720 o          1 E26      -0.492000
     26 O26         -2.2920     0.5230     1.8010 o          1 E26      -0.477100
     27 O27         -4.1210     2.8080     1.8570 oh         1 E26      -0.640000
     28 O28         -1.3940     3.7630     1.6340 oh         1 E26      -0.620000
     29 H011         7.0060     2.2110     1.4120 hc         1 E26       0.044033
     30 H013         8.2780     1.1030     0.8570 hc         1 E26       0.044033
     31 H012         7.4200     2.1190    -0.3200 hc         1 E26       0.044033
     32 H022         6.6020    -0.2560    -0.3870 h1         1 E26       0.043200
     33 H021         6.1910    -0.1650     1.3410 h1         1 E26       0.043200
     34 H051         2.7150     2.1240    -0.6570 ha         1 E26       0.114000
     35 H071        -0.3770     0.8950    -2.0250 ha         1 E26       0.196000
     36 H081         0.5440     2.6690     0.3290 ha         1 E26       0.186000
     37 H091        -0.8720     4.2480    -1.1020 hc         1 E26       0.046700
     38 H092        -1.8730     2.9120    -1.6040 hc         1 E26       0.046700
     39 H101        -2.7420     4.4770     0.2350 h1         1 E26       0.027700
     40 H111        -3.9410     2.4910    -0.1800 h1         1 E26       0.039700
     41 H131        -3.1720     0.7950    -1.3640 ha         1 E26       0.170000
     42 H141        -3.1340    -1.5460    -1.6400 ha         1 E26       0.162000
     43 H151        -2.2940    -1.8590     1.3080 hc         1 E26       0.100700
     44 H163        -4.3830    -3.5040    -0.2030 hc         1 E26       0.038367
     45 H161        -3.9150    -3.6660     1.5070 hc         1 E26       0.038367
     46 H162        -4.7640    -2.2160     0.9600 hc         1 E26       0.038367
     47 H171        -1.7900    -3.5900    -1.1660 h1         1 E26       0.059700
     48 H181        -2.2620    -5.1680     0.6590 hc         1 E26       0.048700
     49 H183        -0.5150    -5.0960     0.4040 hc         1 E26       0.048700
     50 H182        -1.2400    -4.2420     1.7850 hc         1 E26       0.048700
     51 H231         4.5460    -1.6570     0.2520 ha         1 E26       0.130000
     52 H031         4.9120     2.0070    -0.0460 hn         1 E26       0.490000
     53 H241         1.4680    -3.2950    -0.0500 ho         1 E26       0.492000
     54 H271        -4.7170     2.0470     2.0360 ho         1 E26       0.440000
     55 H281        -0.9980     4.6560     1.5510 ho         1 E26       0.437000
@<TRIPOS>BOND
     1     1     2 1   
     2     1    29 1   
     3     1    30 1   
     4     1    31 1   
     5     2    22 1   
     6     2    32 1   
     7     2    33 1   
     8     3     4 ar  
     9     3    21 ar  
    10     3    22 1   
    11     4     5 ar  
    12     4    34 1   
    13     5     6 1   
    14     5    19 ar  
    15     6     7 2   
    16     6    35 1   
    17     7     8 1   
    18     7    36 1   
    19     8     9 1   
    20     8    37 1   
    21     8    38 1   
    22     9    10 1   
    23     9    28 1   
    24     9    39 1   
    25    10    11 1   
    26    10    27 1   
    27    10    40 1   
    28    11    12 1   
    29    11    26 2   
    30    12    13 2   
    31    12    41 1   
    32    13    14 1   
    33    13    42 1   
    34    14    15 1   
    35    14    16 1   
    36    14    43 1   
    37    15    44 1   
    38    15    45 1   
    39    15    46 1   
    40    16    17 1   
    41    16    23 1   
    42    16    47 1   
    43    17    48 1   
    44    17    49 1   
    45    17    50 1   
    46    18    19 1   
    47    18    23 1   
    48    18    25 2   
    49    19    20 ar  
    50    20    21 ar  
    51    20    24 1   
    52    21    51 1   
    53    22    52 1   
    54    24    53 1   
    55    27    54 1   
    56    28    55 1   
@<TRIPOS>SUBSTRUCTURE
     1 E26         1 TEMP              0 ****  ****    0 ROOT
