@<TRIPOS>MOLECULE
E27
   41    44     1     0     0
SMALL
No Charge or Current Charge


@<TRIPOS>ATOM
      1 N1           4.2580     1.2450    -0.0370 na         1 E27      -0.275600
      2 C2           2.9850     0.7020    -0.0220 cc         1 E27       0.392700
      3 N3           2.9660    -0.6390     0.0160 nd         1 E27      -0.570100
      4 C4           4.3340    -0.9520     0.0250 ca         1 E27       0.007400
      5 C5           4.9680    -2.2140     0.0600 ca         1 E27       0.419900
      6 N6           6.3270    -2.3350     0.0640 nb         1 E27      -0.676000
      7 C7           7.0860    -1.2020     0.0320 ca         1 E27       0.273000
      8 C8           6.5080     0.1000    -0.0050 ca         1 E27      -0.057000
      9 C9           5.1080     0.1770    -0.0070 ca         1 E27      -0.054200
     10 C10          8.4900    -1.3050     0.0350 ca         1 E27      -0.076000
     11 C11          9.3020    -0.1560     0.0030 ca         1 E27      -0.104000
     12 C12          8.7170     1.1210    -0.0330 ca         1 E27      -0.103000
     13 C13          7.3190     1.2520    -0.0370 ca         1 E27      -0.097000
     14 S14          1.5590     1.7290    -0.0520 ss         1 E27      -0.164200
     15 C15          0.1760     0.4860    -0.0180 c3         1 E27      -0.067400
     16 C16         -1.2280     1.1140    -0.0370 c          1 E27       0.594700
     17 O17         -1.3730     2.3310    -0.0660 o          1 E27      -0.497100
     18 C18         -2.4370     0.2010    -0.0180 ca         1 E27      -0.197600
     19 C19         -3.7350     0.7620    -0.0400 ca         1 E27       0.042000
     20 C20         -4.8840    -0.0600    -0.0200 ca         1 E27      -0.272500
     21 C21         -4.7340    -1.4620     0.0130 ca         1 E27       0.237000
     22 C22         -3.4480    -2.0210     0.0350 ca         1 E27      -0.141000
     23 C23         -2.3060    -1.2050     0.0220 ca         1 E27      -0.012000
     24 S24         -6.4990     0.7190    -0.0430 sy         1 E27       1.156600
     25 O25         -7.4250     0.0530     0.8690 o          1 E27      -0.536500
     26 Cl26        -6.1000    -2.5810     0.0050 cl         1 E27      -0.149000
     27 O27         -6.3750     2.1730    -0.0830 o          1 E27      -0.536500
     28 N28         -7.0850     0.3390    -1.5150 n8         1 E27      -1.038100
     29 H5           4.3880    -3.1360     0.0860 h4         1 E27       0.033100
     30 H10          8.9530    -2.2870     0.0630 ha         1 E27       0.133000
     31 H11         10.3850    -0.2570     0.0060 ha         1 E27       0.118000
     32 H12          9.3470     2.0080    -0.0580 ha         1 E27       0.116000
     33 H13          6.8750     2.2440    -0.0650 ha         1 E27       0.107000
     34 H15          0.2630    -0.1710    -0.8910 h1         1 E27       0.105200
     35 H15A         0.2620    -0.1220     0.8900 h1         1 E27       0.105200
     36 H19         -3.8490     1.8460    -0.0710 ha         1 E27       0.167000
     37 H22         -3.3350    -3.1020     0.0580 ha         1 E27       0.139000
     38 H23         -1.3300    -1.6860     0.0400 ha         1 E27       0.128000
     39 HN28        -7.9470    -0.1290    -1.2420 hn         1 E27       0.490500
     40 HN2A        -7.4260     1.2510    -1.8110 hn         1 E27       0.490500
     41 HN1          4.4930     2.2280    -0.0650 hn         1 E27       0.370000
@<TRIPOS>BOND
     1     1     2 1   
     2     1     9 1   
     3     1    41 1   
     4     2     3 2   
     5     2    14 1   
     6     3     4 1   
     7     4     5 ar  
     8     4     9 ar  
     9     5     6 ar  
    10     5    29 1   
    11     6     7 ar  
    12     7     8 ar  
    13     7    10 ar  
    14     8     9 ar  
    15     8    13 ar  
    16    10    11 ar  
    17    10    30 1   
    18    11    12 ar  
    19    11    31 1   
    20    12    13 ar  
    21    12    32 1   
    22    13    33 1   
    23    14    15 1   
    24    15    16 1   
    25    15    34 1   
    26    15    35 1   
    27    16    17 2   
    28    16    18 1   
    29    18    19 ar  
    30    18    23 ar  
    31    19    20 ar  
    32    19    36 1   
    33    20    21 ar  
    34    20    24 1   
    35    21    22 ar  
    36    21    26 1   
    37    22    23 ar  
    38    22    37 1   
    39    23    38 1   
    40    24    25 2   
    41    24    27 2   
    42    24    28 1   
    43    28    39 1   
    44    28    40 1   
@<TRIPOS>SUBSTRUCTURE
     1 E27         1 TEMP              0 ****  ****    0 ROOT
