@<TRIPOS>MOLECULE
E27
   41    44     1     0     0
SMALL
bcc


@<TRIPOS>ATOM
      1 N1           4.0810     1.2310     0.0580 na         1 E27      -0.225300
      2 C2           2.8480     0.6490     0.1010 cc         1 E27       0.392700
      3 N3           2.8990    -0.6530     0.0960 nd         1 E27      -0.570100
      4 C4           4.2390    -0.9440     0.0450 ca         1 E27      -0.057900
      5 C5           4.9080    -2.1830     0.0150 ca         1 E27       0.485200
      6 N6           6.2090    -2.2600    -0.0360 nb         1 E27      -0.676000
      7 C7           6.9550    -1.1180    -0.0600 ca         1 E27       0.403600
      8 C8           6.3990     0.1900    -0.0330 ca         1 E27      -0.122300
      9 C9           4.9920     0.2200     0.0210 ca         1 E27      -0.054200
     10 C10          8.3600    -1.2450    -0.1150 ca         1 E27      -0.159300
     11 C11          9.1640    -0.1360    -0.1430 ca         1 E27      -0.122000
     12 C12          8.6030     1.1550    -0.1160 ca         1 E27      -0.121000
     13 C13          7.2430     1.3180    -0.0610 ca         1 E27      -0.115000
     14 S14          1.4250     1.6500     0.1500 ss         1 E27      -0.116300
     15 C15          0.1770     0.3420     0.1580 c3         1 E27      -0.115300
     16 C16         -1.1730     1.0080     0.1280 c          1 E27       0.594700
     17 O17         -1.2650     2.2150     0.1200 o          1 E27      -0.497100
     18 C18         -2.3740     0.1380     0.0990 ca         1 E27      -0.197600
     19 C19         -3.6270     0.7400     0.0060 ca         1 E27       0.024000
     20 C20         -4.7750    -0.0270    -0.0330 ca         1 E27      -0.272500
     21 C21         -4.6810    -1.4190     0.0280 ca         1 E27       0.145400
     22 C22         -3.4390    -2.0250     0.1240 ca         1 E27      -0.159000
     23 C23         -2.2930    -1.2500     0.1590 ca         1 E27      -0.030000
     24 S24         -6.3460     0.8120    -0.1360 sy         1 E27       1.298200
     25 O25         -7.2190     0.2970     0.9030 o          1 E27      -0.607300
     26 CL26        -6.0710    -2.4230    -0.0310 cl         1 E27      -0.057400
     27 O27         -6.0460     2.2340    -0.1720 o          1 E27      -0.607300
     28 N28         -6.9230     0.2890    -1.5760 n8         1 E27      -0.927700
     29 H5           4.3460    -3.1120     0.0330 h4         1 E27       0.033100
     30 H10          8.7830    -2.2410    -0.1360 ha         1 E27       0.151000
     31 H11         10.2390    -0.2490    -0.1850 ha         1 E27       0.136000
     32 H12          9.2500     2.0210    -0.1390 ha         1 E27       0.134000
     33 H13          6.8170     2.3130    -0.0390 ha         1 E27       0.125000
     34 H15          0.3040    -0.3090    -0.7090 h1         1 E27       0.105200
     35 H15A         0.2810    -0.2790     1.0500 h1         1 E27       0.105200
     36 H19         -3.6990     1.8180    -0.0410 ha         1 E27       0.185000
     37 H22         -3.3660    -3.1020     0.1710 ha         1 E27       0.157000
     38 H23         -1.3400    -1.7550     0.2370 ha         1 E27       0.146000
     39 HN28        -7.9010     0.0290    -1.5500 hn         1 E27       0.435300
     40 HN2A        -6.7010     0.8980    -2.3560 hn         1 E27       0.435300
     41 HN1          4.2720     2.2220     0.0510 hn         1 E27       0.319700
@<TRIPOS>BOND
     1     1     2 1   
     2     1     9 1   
     3     1    41 1   
     4     2     3 2   
     5     2    14 1   
     6     3     4 1   
     7     4     5 ar  
     8     4     9 ar  
     9     5     6 ar  
    10     5    29 1   
    11     6     7 ar  
    12     7     8 ar  
    13     7    10 ar  
    14     8     9 ar  
    15     8    13 ar  
    16    10    11 ar  
    17    10    30 1   
    18    11    12 ar  
    19    11    31 1   
    20    12    13 ar  
    21    12    32 1   
    22    13    33 1   
    23    14    15 1   
    24    15    16 1   
    25    15    34 1   
    26    15    35 1   
    27    16    17 2   
    28    16    18 1   
    29    18    19 ar  
    30    18    23 ar  
    31    19    20 ar  
    32    19    36 1   
    33    20    21 ar  
    34    20    24 1   
    35    21    22 ar  
    36    21    26 1   
    37    22    23 ar  
    38    22    37 1   
    39    23    38 1   
    40    24    25 2   
    41    24    27 2   
    42    24    28 1   
    43    28    39 1   
    44    28    40 1   
@<TRIPOS>SUBSTRUCTURE
     1 E27         1 TEMP              0 ****  ****    0 ROOT
