@<TRIPOS>MOLECULE
E29
   23    24     1     0     0
SMALL
bcc


@<TRIPOS>ATOM
      1 C24         -2.2380    -3.0130     0.1410 c          1 E29       0.905800
      2 O25         -3.1920    -2.4250     0.6850 o          1 E29      -0.815800
      3 C26         -0.9620    -2.2260    -0.0770 ce         1 E29      -0.134200
      4 C27         -0.8390    -0.9420     0.2600 cf         1 E29      -0.210200
      5 C28          0.3810    -0.1460     0.1020 ca         1 E29       0.053200
      6 C29          1.6410    -0.7460     0.1080 ca         1 E29      -0.134000
      7 C30          2.7880     0.0180    -0.0050 ca         1 E29       0.045400
      8 C31          2.7330     1.3990    -0.1230 ca         1 E29      -0.156000
      9 C32          1.4920     2.0090    -0.1390 ca         1 E29      -0.112000
     10 C33          0.3410     1.2460    -0.0270 ca         1 E29      -0.040200
     11 N34         -0.9060     1.9180    -0.0560 na         1 E29       0.024500
     12 C35         -1.3740     2.8730     0.7550 cc         1 E29       0.379400
     13 N36         -2.5530     3.2300     0.3220 nd         1 E29      -0.402000
     14 N37         -2.7880     2.4820    -0.7590 nd         1 E29      -0.059000
     15 N38         -1.8170     1.6980    -1.0000 nc         1 E29      -0.161800
     16 CL           4.3270    -0.7680     0.0180 cl         1 E29      -0.125400
     17 H26         -0.1360    -2.7550    -0.5430 ha         1 E29       0.095000
     18 H27         -1.7030    -0.4460     0.6890 ha         1 E29       0.158000
     19 H29          1.7220    -1.8170     0.2330 ha         1 E29       0.164000
     20 H31          3.6340     1.9900    -0.2060 ha         1 E29       0.140000
     21 H32          1.4210     3.0830    -0.2510 ha         1 E29       0.134000
     22 H35         -0.8490     3.2520     1.6150 h5         1 E29       0.067100
     23 OXT         -2.2050    -4.1960    -0.2520 o          1 E29      -0.815800
@<TRIPOS>BOND
     1     1     2 1   
     2     1     3 1   
     3     1    23 1   
     4     3     4 2   
     5     3    17 1   
     6     4     5 1   
     7     4    18 1   
     8     5     6 ar  
     9     5    10 ar  
    10     6     7 ar  
    11     6    19 1   
    12     7     8 ar  
    13     7    16 1   
    14     8     9 ar  
    15     8    20 1   
    16     9    10 ar  
    17     9    21 1   
    18    10    11 1   
    19    11    12 1   
    20    11    15 1   
    21    12    13 2   
    22    12    22 1   
    23    13    14 1   
    24    14    15 2   
@<TRIPOS>SUBSTRUCTURE
     1 E29         1 TEMP              0 ****  ****    0 ROOT
