@<TRIPOS>MOLECULE
E29
   23    24     1     0     0
SMALL
No Charge or Current Charge


@<TRIPOS>ATOM
      1 C24         -2.2680    -2.9640     0.3920 c          1 E29       0.695200
      2 O25         -3.2950    -2.4110     0.0270 o          1 E29      -0.710500
      3 C26         -0.9840    -2.1920     0.3730 ce         1 E29      -0.184200
      4 C27         -0.8320    -0.8870    -0.0180 cf         1 E29      -0.260200
      5 C28          0.4010    -0.0670    -0.0830 ca         1 E29       0.053200
      6 C29          1.6620    -0.7020    -0.0960 ca         1 E29      -0.116000
      7 C30          2.8440     0.0490    -0.1810 ca         1 E29       0.137000
      8 C31          2.7890     1.4460    -0.2570 ca         1 E29      -0.138000
      9 C32          1.5450     2.0960    -0.2440 ca         1 E29      -0.094000
     10 C33          0.3500     1.3520    -0.1550 ca         1 E29      -0.040200
     11 N34         -0.8600     2.0460    -0.1080 na         1 E29       0.024500
     12 C35         -1.6990     2.0970     0.9660 cc         1 E29       0.379400
     13 N36         -2.7130     2.8560     0.5830 nd         1 E29      -0.402000
     14 N37         -2.4490     3.2420    -0.7210 nd         1 E29      -0.059000
     15 N38         -1.3150     2.7550    -1.1610 nc         1 E29      -0.161800
     16 Cl           4.4010    -0.7680    -0.2020 cl         1 E29      -0.217000
     17 H26         -0.1200    -2.7540     0.7190 ha         1 E29       0.145000
     18 H27         -1.7370    -0.3800    -0.3580 ha         1 E29       0.208000
     19 H29          1.7360    -1.7830    -0.0570 ha         1 E29       0.146000
     20 H31          3.7070     2.0240    -0.3250 ha         1 E29       0.122000
     21 H32          1.5100     3.1820    -0.2950 ha         1 E29       0.116000
     22 H35         -1.5320     1.6040     1.9140 h5         1 E29       0.067100
     23 OXT         -2.2270    -4.1220     0.7760 o          1 E29      -0.710500
@<TRIPOS>BOND
     1     1     2 1   
     2     1     3 1   
     3     1    23 1   
     4     3     4 2   
     5     3    17 1   
     6     4     5 1   
     7     4    18 1   
     8     5     6 ar  
     9     5    10 ar  
    10     6     7 ar  
    11     6    19 1   
    12     7     8 ar  
    13     7    16 1   
    14     8     9 ar  
    15     8    20 1   
    16     9    10 ar  
    17     9    21 1   
    18    10    11 1   
    19    11    12 1   
    20    11    15 1   
    21    12    13 2   
    22    12    22 1   
    23    13    14 1   
    24    14    15 2   
@<TRIPOS>SUBSTRUCTURE
     1 E29         1 TEMP              0 ****  ****    0 ROOT
