@<TRIPOS>MOLECULE
E2A
   42    43     1     0     0
SMALL
No Charge or Current Charge


@<TRIPOS>ATOM
      1 C3         -22.7050   -32.0630    20.4490 c6         1 E2A      -0.053400
      2 C4         -23.5970   -30.8150    20.7670 c6         1 E2A      -0.102000
      3 C7         -22.6940   -29.6770    21.3520 c3         1 E2A      -0.082100
      4 C14        -24.3050   -30.2760    19.4730 c          1 E2A       0.589100
      5 C15        -26.0310   -30.6610    17.8260 c3         1 E2A       0.149900
      6 C5         -24.6590   -31.2400    21.8510 c6         1 E2A      -0.062400
      7 C6         -25.0390   -32.7530    21.8880 c6         1 E2A      -0.182400
      8 C1         -24.8340   -33.4890    20.5610 c          1 E2A       0.585100
      9 C2         -23.4850   -33.2980    19.8780 c6         1 E2A      -0.232700
     10 C16        -22.7160   -34.6020    20.0340 c          1 E2A       0.615100
     11 C17        -21.5640   -36.0520    21.5700 c3         1 E2A       0.213900
     12 C18        -21.1820   -36.0660    23.0430 ca         1 E2A      -0.098300
     13 C23        -19.9400   -35.5490    23.4610 ca         1 E2A      -0.085500
     14 C22        -19.5900   -35.5590    24.8230 ca         1 E2A      -0.116000
     15 C21        -20.4810   -36.0820    25.7750 ca         1 E2A      -0.099000
     16 C20        -21.7220   -36.5960    25.3640 ca         1 E2A      -0.116000
     17 C19        -22.0730   -36.5870    24.0030 ca         1 E2A      -0.085500
     18 O          -25.3130   -31.0790    19.0020 os         1 E2A      -0.443100
     19 O1         -24.0120   -29.2080    18.9490 o          1 E2A      -0.479000
     20 O4         -25.7240   -34.1580    20.0550 o          1 E2A      -0.501100
     21 O2         -22.6010   -35.4050    19.1190 o          1 E2A      -0.471000
     22 O3         -22.2700   -34.8290    21.3070 os         1 E2A      -0.443100
     23 H1         -22.1740   -32.3420    21.3700 hc         1 E2A       0.069700
     24 H2         -21.9150   -31.7830    19.7370 hc         1 E2A       0.069700
     25 H3         -22.1760   -30.0020    22.2630 hc         1 E2A       0.047033
     26 H4         -21.9220   -29.3660    20.6370 hc         1 E2A       0.047033
     27 H5         -23.2850   -28.7900    21.6110 hc         1 E2A       0.047033
     28 H6         -26.8000   -31.3990    17.5670 h1         1 E2A       0.050033
     29 H7         -26.5270   -29.6960    17.9930 h1         1 E2A       0.050033
     30 H8         -25.3530   -30.5610    16.9680 h1         1 E2A       0.050033
     31 H9         -24.3070   -30.9630    22.8550 hc         1 E2A       0.058200
     32 H10        -25.5730   -30.6450    21.7080 hc         1 E2A       0.058200
     33 H11        -24.3150   -33.2060    22.5790 hc         1 E2A       0.076700
     34 H12        -26.0510   -32.9240    22.2770 hc         1 E2A       0.076700
     35 H13        -23.6930   -33.2000    18.8060 hc         1 E2A       0.112700
     36 H14        -22.1950   -36.9230    21.3460 h1         1 E2A       0.057700
     37 H15        -20.6590   -36.1220    20.9530 h1         1 E2A       0.057700
     38 H16        -19.2460   -35.1390    22.7300 ha         1 E2A       0.115500
     39 H17        -18.6290   -35.1590    25.1390 ha         1 E2A       0.114000
     40 H18        -20.2100   -36.0890    26.8280 ha         1 E2A       0.113000
     41 H19        -22.4140   -37.0000    26.1010 ha         1 E2A       0.114000
     42 H20        -23.0380   -36.9830    23.6940 ha         1 E2A       0.115500
@<TRIPOS>BOND
     1     1     2 1   
     2     1     9 1   
     3     1    23 1   
     4     1    24 1   
     5     2     3 1   
     6     2     4 1   
     7     2     6 1   
     8     3    25 1   
     9     3    26 1   
    10     3    27 1   
    11     4    18 1   
    12     4    19 2   
    13     5    18 1   
    14     5    28 1   
    15     5    29 1   
    16     5    30 1   
    17     6     7 1   
    18     6    31 1   
    19     6    32 1   
    20     7     8 1   
    21     7    33 1   
    22     7    34 1   
    23     8     9 1   
    24     8    20 2   
    25     9    10 1   
    26     9    35 1   
    27    10    21 2   
    28    10    22 1   
    29    11    12 1   
    30    11    22 1   
    31    11    36 1   
    32    11    37 1   
    33    12    13 ar  
    34    12    17 ar  
    35    13    14 ar  
    36    13    38 1   
    37    14    15 ar  
    38    14    39 1   
    39    15    16 ar  
    40    15    40 1   
    41    16    17 ar  
    42    16    41 1   
    43    17    42 1   
@<TRIPOS>SUBSTRUCTURE
     1 E2A         1 TEMP              0 ****  ****    0 ROOT
