@<TRIPOS>MOLECULE
E2A
   42    43     1     0     0
SMALL
abcg2


@<TRIPOS>ATOM
      1 C3         -23.1850   -32.3910    20.7620 c6         1 E2A      -0.053400
      2 C4         -24.0920   -31.1620    20.5810 c6         1 E2A      -0.102000
      3 C7         -23.5900   -30.0440    21.5010 c3         1 E2A      -0.082100
      4 C14        -24.0560   -30.7000    19.1310 c          1 E2A       0.589100
      5 C15        -24.8850   -29.0880    17.6260 c3         1 E2A       0.149900
      6 C5         -25.5630   -31.5210    20.9260 c6         1 E2A      -0.062400
      7 C6         -25.6470   -32.6290    21.9680 c6         1 E2A      -0.182400
      8 C1         -25.0290   -33.9060    21.4620 c          1 E2A       0.585100
      9 C2         -23.9180   -33.6990    20.4460 c6         1 E2A      -0.232700
     10 C16        -23.0030   -34.8990    20.4020 c          1 E2A       0.615100
     11 C17        -21.4050   -36.1240    21.6450 c3         1 E2A       0.213900
     12 C18        -20.8400   -36.0910    23.0310 ca         1 E2A      -0.098300
     13 C23        -19.8370   -35.1830    23.3610 ca         1 E2A      -0.085500
     14 C22        -19.3230   -35.1380    24.6490 ca         1 E2A      -0.116000
     15 C21        -19.8080   -36.0040    25.6220 ca         1 E2A      -0.099000
     16 C20        -20.8060   -36.9130    25.3010 ca         1 E2A      -0.116000
     17 C19        -21.3210   -36.9530    24.0110 ca         1 E2A      -0.085500
     18 O          -24.7940   -29.6140    18.9490 os         1 E2A      -0.443100
     19 O1         -23.4580   -31.2460    18.2380 o          1 E2A      -0.479000
     20 O4         -25.3730   -35.0050    21.8230 o          1 E2A      -0.501100
     21 O2         -22.8880   -35.6400    19.4600 o          1 E2A      -0.471000
     22 O3         -22.3310   -35.0300    21.5360 os         1 E2A      -0.443100
     23 H1         -22.8390   -32.4210    21.7970 hc         1 E2A       0.069700
     24 H2         -22.2900   -32.2970    20.1460 hc         1 E2A       0.069700
     25 H3         -23.6660   -30.3660    22.5400 hc         1 E2A       0.047033
     26 H4         -22.5420   -29.8120    21.3050 hc         1 E2A       0.047033
     27 H5         -24.1720   -29.1300    21.3930 hc         1 E2A       0.047033
     28 H6         -25.5370   -28.2220    17.6930 h1         1 E2A       0.050033
     29 H7         -23.9100   -28.7770    17.2530 h1         1 E2A       0.050033
     30 H8         -25.3170   -29.8140    16.9370 h1         1 E2A       0.050033
     31 H9         -26.0870   -30.6350    21.2850 hc         1 E2A       0.058200
     32 H10        -26.1050   -31.8510    20.0350 hc         1 E2A       0.058200
     33 H11        -25.1100   -32.3420    22.8800 hc         1 E2A       0.076700
     34 H12        -26.6800   -32.8180    22.2640 hc         1 E2A       0.076700
     35 H13        -24.3930   -33.6220    19.4610 hc         1 E2A       0.112700
     36 H14        -21.9200   -37.0680    21.4550 h1         1 E2A       0.057700
     37 H15        -20.6190   -36.0070    20.8960 h1         1 E2A       0.057700
     38 H16        -19.4500   -34.5110    22.6040 ha         1 E2A       0.115500
     39 H17        -18.5420   -34.4300    24.8930 ha         1 E2A       0.114000
     40 H18        -19.4040   -35.9720    26.6260 ha         1 E2A       0.113000
     41 H19        -21.1850   -37.5920    26.0530 ha         1 E2A       0.114000
     42 H20        -22.0990   -37.6660    23.7650 ha         1 E2A       0.115500
@<TRIPOS>BOND
     1     1     2 1   
     2     1     9 1   
     3     1    23 1   
     4     1    24 1   
     5     2     3 1   
     6     2     4 1   
     7     2     6 1   
     8     3    25 1   
     9     3    26 1   
    10     3    27 1   
    11     4    18 1   
    12     4    19 2   
    13     5    18 1   
    14     5    28 1   
    15     5    29 1   
    16     5    30 1   
    17     6     7 1   
    18     6    31 1   
    19     6    32 1   
    20     7     8 1   
    21     7    33 1   
    22     7    34 1   
    23     8     9 1   
    24     8    20 2   
    25     9    10 1   
    26     9    35 1   
    27    10    21 2   
    28    10    22 1   
    29    11    12 1   
    30    11    22 1   
    31    11    36 1   
    32    11    37 1   
    33    12    13 ar  
    34    12    17 ar  
    35    13    14 ar  
    36    13    38 1   
    37    14    15 ar  
    38    14    39 1   
    39    15    16 ar  
    40    15    40 1   
    41    16    17 ar  
    42    16    41 1   
    43    17    42 1   
@<TRIPOS>SUBSTRUCTURE
     1 E2A         1 TEMP              0 ****  ****    0 ROOT
