@<TRIPOS>MOLECULE
E2B
   61    65     1     0     0
SMALL
No Charge or Current Charge


@<TRIPOS>ATOM
      1 N30         -7.3420     2.4790    -1.1450 nt         1 E2B      -0.605000
      2 C9           1.7240     0.1500    -0.3100 c6         1 E2B      -0.045700
      3 C10          3.0580    -0.5990    -0.7070 c6         1 E2B      -0.006400
      4 C15          0.4660    -0.7430    -0.5250 c5         1 E2B      -0.066700
      5 C8           1.5840     1.4200    -1.1540 c6         1 E2B      -0.069400
      6 C14          0.5220    -2.1000     0.2240 c5         1 E2B      -0.040000
      7 C11          4.4000     0.1890    -0.4050 ca         1 E2B      -0.099300
      8 C13          1.7570    -2.8690    -0.3090 c6         1 E2B      -0.061400
      9 C16         -0.9130    -0.1950    -0.0680 c5         1 E2B      -0.064400
     10 C28         -6.5800     1.3640    -1.1820 c          1 E2B       0.617700
     11 C25         -5.4310     2.0560     1.0020 ca         1 E2B      -0.091000
     12 C6           4.5250     1.6160    -0.4650 ca         1 E2B      -0.031300
     13 C12          3.0720    -2.0620    -0.1160 c6         1 E2B      -0.069400
     14 C17         -1.8450    -1.4540    -0.1890 c5         1 E2B      -0.091700
     15 C18         -0.8480    -2.6790    -0.2760 c5         1 E2B       0.176300
     16 C24         -5.5820     1.1390    -0.0660 ca         1 E2B      -0.150600
     17 C1           5.5860    -0.5400    -0.1060 ca         1 E2B      -0.075000
     18 C26         -4.4940     1.8140     2.0210 ca         1 E2B      -0.119000
     19 C23         -4.7700    -0.0190    -0.0820 ca         1 E2B      -0.058000
     20 C27         -3.6960     0.6610     1.9910 ca         1 E2B      -0.087000
     21 C7           3.3680     2.5520    -0.7800 c6         1 E2B      -0.034100
     22 C3           6.8980     1.4910     0.0950 ca         1 E2B       0.137100
     23 C22         -3.8300    -0.2620     0.9380 ca         1 E2B      -0.085300
     24 C5           5.7620     2.2420    -0.2100 ca         1 E2B      -0.207000
     25 C2           6.8100     0.1010     0.1440 ca         1 E2B      -0.145000
     26 O4           8.0880     2.1080     0.3380 oh         1 E2B      -0.535100
     27 O29         -6.7230     0.5830    -2.1090 o          1 E2B      -0.608100
     28 O19         -1.2770    -3.8320     0.4540 oh         1 E2B      -0.651000
     29 HN30        -7.2400     3.1370    -0.3890 hn         1 E2B       0.314000
     30 HN3A        -8.0110     2.6410    -1.8820 hn         1 E2B       0.314000
     31 H9           1.7840     0.4420     0.7470 hc         1 E2B       0.056700
     32 H10          3.0210    -0.7190    -1.7980 hc         1 E2B       0.051700
     33 H15          0.4430    -0.9060    -1.6110 hc         1 E2B       0.044700
     34 H8           1.5120     1.1760    -2.2230 hc         1 E2B       0.044700
     35 H8A          0.6990     2.0100    -0.8810 hc         1 E2B       0.044700
     36 H13          1.8400    -3.8470     0.1850 hc         1 E2B       0.044200
     37 H13A         1.6270    -3.0820    -1.3790 hc         1 E2B       0.044200
     38 H16         -0.8740     0.2020     0.9520 hc         1 E2B       0.047700
     39 H16A        -1.2660     0.6250    -0.7040 hc         1 E2B       0.047700
     40 H25         -6.0320     2.9600     1.0570 ha         1 E2B       0.108000
     41 H12          3.8540    -2.6510    -0.6120 hc         1 E2B       0.043200
     42 H12A         3.3400    -2.0320     0.9480 hc         1 E2B       0.043200
     43 H17         -2.3820    -1.4000    -1.1430 hc         1 E2B       0.051700
     44 H18         -0.7450    -2.9590    -1.3350 h1         1 E2B       0.027700
     45 H1           5.6000    -1.6220    -0.0630 ha         1 E2B       0.113000
     46 H26         -4.3860     2.5260     2.8370 ha         1 E2B       0.115000
     47 H23         -4.8680    -0.7380    -0.8940 ha         1 E2B       0.134000
     48 H27         -2.9720     0.4880     2.7840 ha         1 E2B       0.115000
     49 H7           3.6000     3.1890    -1.6440 hc         1 E2B       0.048200
     50 H7A          3.1980     3.2180     0.0770 hc         1 E2B       0.048200
     51 H5           5.8310     3.3270    -0.2530 ha         1 E2B       0.109000
     52 H2           7.6940    -0.4890     0.3730 ha         1 E2B       0.127000
     53 HO4          7.9540     3.0770     0.2570 ho         1 E2B       0.461000
     54 HO19        -2.0690    -4.1790    -0.0090 ho         1 E2B       0.442000
     55 C21         -2.9590    -1.5140     0.8950 c3         1 E2B      -0.020100
     56 C20          0.6230    -2.0080     1.7900 c3         1 E2B      -0.074100
     57 H20         -0.2640    -1.5610     2.2500 hc         1 E2B       0.036700
     58 H20A         0.7340    -3.0040     2.2330 hc         1 E2B       0.036700
     59 H20B         1.4800    -1.4120     2.1210 hc         1 E2B       0.036700
     60 H21         -3.6020    -2.3830     0.7090 hc         1 E2B       0.054700
     61 H21A        -2.5150    -1.6890     1.8810 hc         1 E2B       0.054700
@<TRIPOS>BOND
     1     1    10 1   
     2     1    29 1   
     3     1    30 1   
     4     2     3 1   
     5     2     4 1   
     6     2     5 1   
     7     2    31 1   
     8     3     7 1   
     9     3    13 1   
    10     3    32 1   
    11     4     6 1   
    12     4     9 1   
    13     4    33 1   
    14     5    21 1   
    15     5    34 1   
    16     5    35 1   
    17     6     8 1   
    18     6    15 1   
    19     6    56 1   
    20     7    12 ar  
    21     7    17 ar  
    22     8    13 1   
    23     8    36 1   
    24     8    37 1   
    25     9    14 1   
    26     9    38 1   
    27     9    39 1   
    28    10    16 1   
    29    10    27 2   
    30    11    16 ar  
    31    11    18 ar  
    32    11    40 1   
    33    12    21 1   
    34    12    24 ar  
    35    13    41 1   
    36    13    42 1   
    37    14    15 1   
    38    14    43 1   
    39    14    55 1   
    40    15    28 1   
    41    15    44 1   
    42    16    19 ar  
    43    17    25 ar  
    44    17    45 1   
    45    18    20 ar  
    46    18    46 1   
    47    19    23 ar  
    48    19    47 1   
    49    20    23 ar  
    50    20    48 1   
    51    21    49 1   
    52    21    50 1   
    53    22    24 ar  
    54    22    25 ar  
    55    22    26 1   
    56    23    55 1   
    57    24    51 1   
    58    25    52 1   
    59    26    53 1   
    60    28    54 1   
    61    55    60 1   
    62    55    61 1   
    63    56    57 1   
    64    56    58 1   
    65    56    59 1   
@<TRIPOS>SUBSTRUCTURE
     1 E2B         1 TEMP              0 ****  ****    0 ROOT
