@<TRIPOS>MOLECULE
E2B
   61    65     1     0     0
SMALL
abcg2


@<TRIPOS>ATOM
      1 N30         -7.5250     2.0720    -1.1030 nt         1 E2B      -0.605000
      2 C9           1.8140     0.1100    -0.1110 c6         1 E2B      -0.045700
      3 C10          3.0210    -0.6960    -0.6180 c6         1 E2B      -0.006400
      4 C15          0.5560    -0.6760    -0.4270 c5         1 E2B      -0.066700
      5 C8           1.8400     1.4950    -0.7380 c6         1 E2B      -0.069400
      6 C14          0.5310    -2.0560     0.2460 c5         1 E2B      -0.040000
      7 C11          4.3190     0.0680    -0.4330 ca         1 E2B      -0.099300
      8 C13          1.7290    -2.8630    -0.2480 c6         1 E2B      -0.061400
      9 C16         -0.8120    -0.0870    -0.0970 c5         1 E2B      -0.064400
     10 C28         -6.5200     1.2000    -1.2710 c          1 E2B       0.617700
     11 C25         -5.3240     2.1600     0.7520 ca         1 E2B      -0.091000
     12 C6           4.3300     1.4600    -0.2940 ca         1 E2B      -0.031300
     13 C12          3.0450    -2.1120    -0.0280 c6         1 E2B      -0.069400
     14 C17         -1.7670    -1.2980    -0.2070 c5         1 E2B      -0.091700
     15 C18         -0.8280    -2.5470    -0.2590 c5         1 E2B       0.176300
     16 C24         -5.5000     1.1350    -0.1760 ca         1 E2B      -0.150600
     17 C1           5.5520    -0.5890    -0.4460 ca         1 E2B      -0.075000
     18 C26         -4.3520     2.0390     1.7320 ca         1 E2B      -0.119000
     19 C23         -4.6830     0.0110    -0.1130 ca         1 E2B      -0.058000
     20 C27         -3.5560     0.9040     1.7940 ca         1 E2B      -0.087000
     21 C7           3.0560     2.2640    -0.2470 c6         1 E2B      -0.034100
     22 C3           6.7530     1.4660    -0.1830 ca         1 E2B       0.137100
     23 C22         -3.7080    -0.1260     0.8700 ca         1 E2B      -0.085300
     24 C5           5.5410     2.1390    -0.1720 ca         1 E2B      -0.207000
     25 C2           6.7550     0.0830    -0.3230 ca         1 E2B      -0.145000
     26 O4           7.9460     2.0940    -0.0660 oh         1 E2B      -0.535100
     27 O29         -6.4260     0.4870    -2.2620 o          1 E2B      -0.608100
     28 O19         -1.2810    -3.6780     0.4460 oh         1 E2B      -0.651000
     29 HN30        -7.6660     2.5900    -0.2540 hn         1 E2B       0.314000
     30 HN3A        -8.2330     2.1600    -1.8130 hn         1 E2B       0.314000
     31 H9           1.9010     0.2330     0.9780 hc         1 E2B       0.056700
     32 H10          2.8680    -0.8120    -1.7020 hc         1 E2B       0.051700
     33 H15          0.5720    -0.8640    -1.5120 hc         1 E2B       0.044700
     34 H8           1.8650     1.4000    -1.8290 hc         1 E2B       0.044700
     35 H8A          0.9360     2.0540    -0.4910 hc         1 E2B       0.044700
     36 H13          1.7760    -3.8370     0.2470 hc         1 E2B       0.044200
     37 H13A         1.6090    -3.0620    -1.3190 hc         1 E2B       0.044200
     38 H16         -0.8120     0.3280     0.9160 hc         1 E2B       0.047700
     39 H16A        -1.1010     0.7250    -0.7640 hc         1 E2B       0.047700
     40 H25         -5.9170     3.0630     0.7140 ha         1 E2B       0.108000
     41 H12          3.8440    -2.6980    -0.4850 hc         1 E2B       0.043200
     42 H12A         3.2890    -2.0550     1.0380 hc         1 E2B       0.043200
     43 H17         -2.3050    -1.2400    -1.1580 hc         1 E2B       0.051700
     44 H18         -0.6960    -2.8090    -1.3180 h1         1 E2B       0.027700
     45 H1           5.5890    -1.6650    -0.5590 ha         1 E2B       0.113000
     46 H26         -4.2110     2.8360     2.4510 ha         1 E2B       0.115000
     47 H23         -4.8180    -0.7780    -0.8430 ha         1 E2B       0.134000
     48 H27         -2.8050     0.8220     2.5700 ha         1 E2B       0.115000
     49 H7           3.1830     3.1880    -0.8180 hc         1 E2B       0.048200
     50 H7A          2.8820     2.5770     0.7880 hc         1 E2B       0.048200
     51 H5           5.5240     3.2210    -0.0670 ha         1 E2B       0.109000
     52 H2           7.6900    -0.4620    -0.3390 ha         1 E2B       0.127000
     53 HO4          7.8170     3.0440    -0.0000 ho         1 E2B       0.461000
     54 HO19        -1.9810    -4.0890    -0.0650 ho         1 E2B       0.442000
     55 C21         -2.8240    -1.3420     0.9000 c3         1 E2B      -0.020100
     56 C20          0.5530    -1.9820     1.7770 c3         1 E2B      -0.074100
     57 H20         -0.1940    -1.3040     2.1880 hc         1 E2B       0.036700
     58 H20A         0.3670    -2.9670     2.2060 hc         1 E2B       0.036700
     59 H20B         1.5200    -1.6490     2.1550 hc         1 E2B       0.036700
     60 H21         -3.4440    -2.2360     0.7900 hc         1 E2B       0.054700
     61 H21A        -2.3460    -1.4210     1.8780 hc         1 E2B       0.054700
@<TRIPOS>BOND
     1     1    10 1   
     2     1    29 1   
     3     1    30 1   
     4     2     3 1   
     5     2     4 1   
     6     2     5 1   
     7     2    31 1   
     8     3     7 1   
     9     3    13 1   
    10     3    32 1   
    11     4     6 1   
    12     4     9 1   
    13     4    33 1   
    14     5    21 1   
    15     5    34 1   
    16     5    35 1   
    17     6     8 1   
    18     6    15 1   
    19     6    56 1   
    20     7    12 ar  
    21     7    17 ar  
    22     8    13 1   
    23     8    36 1   
    24     8    37 1   
    25     9    14 1   
    26     9    38 1   
    27     9    39 1   
    28    10    16 1   
    29    10    27 2   
    30    11    16 ar  
    31    11    18 ar  
    32    11    40 1   
    33    12    21 1   
    34    12    24 ar  
    35    13    41 1   
    36    13    42 1   
    37    14    15 1   
    38    14    43 1   
    39    14    55 1   
    40    15    28 1   
    41    15    44 1   
    42    16    19 ar  
    43    17    25 ar  
    44    17    45 1   
    45    18    20 ar  
    46    18    46 1   
    47    19    23 ar  
    48    19    47 1   
    49    20    23 ar  
    50    20    48 1   
    51    21    49 1   
    52    21    50 1   
    53    22    24 ar  
    54    22    25 ar  
    55    22    26 1   
    56    23    55 1   
    57    24    51 1   
    58    25    52 1   
    59    26    53 1   
    60    28    54 1   
    61    55    60 1   
    62    55    61 1   
    63    56    57 1   
    64    56    58 1   
    65    56    59 1   
@<TRIPOS>SUBSTRUCTURE
     1 E2B         1 TEMP              0 ****  ****    0 ROOT
