@<TRIPOS>MOLECULE
E2C
   52    54     1     0     0
SMALL
No Charge or Current Charge


@<TRIPOS>ATOM
      1 CAA        -16.2510   -36.7460     9.2090 c3         1 E2C      -0.110100
      2 CAK        -17.3900   -37.7130     8.8150 c3         1 E2C       0.174800
      3 NAX        -18.7660   -37.1510     8.9020 n3         1 E2C      -0.737600
      4 CAL        -19.1550   -36.8230    10.3010 c3         1 E2C       0.174800
      5 CAB        -20.6680   -36.6190    10.5240 c3         1 E2C      -0.110100
      6 CAP        -19.0680   -36.0650     7.9210 c3         1 E2C       0.178800
      7 CAN        -18.9330   -36.4490     6.4240 c3         1 E2C      -0.083400
      8 CAM        -17.5910   -36.0410     5.7610 c3         1 E2C      -0.075400
      9 CAO        -17.4590   -36.4720     4.2820 c3         1 E2C      -0.108400
     10 CAQ        -18.4590   -35.7740     3.3260 c3         1 E2C       0.077600
     11 NAY        -18.2900   -36.1660     1.9030 na         1 E2C      -0.090000
     12 CAW        -19.0940   -37.1830     1.3490 ca         1 E2C      -0.017000
     13 CAJ        -19.6830   -38.1980     2.1410 ca         1 E2C      -0.148000
     14 CAS        -20.4950   -39.1810     1.5520 ca         1 E2C       0.131000
     15 ClC        -21.2190   -40.4300     2.5570 cl         1 E2C      -0.201000
     16 CAF        -20.7330   -39.1730     0.1700 ca         1 E2C      -0.112000
     17 CAI        -20.1490   -38.1780    -0.6310 ca         1 E2C      -0.096000
     18 CAU        -19.3340   -37.1950    -0.0460 ca         1 E2C       0.121000
     19 OAR        -18.7530   -36.2500    -0.8560 os         1 E2C      -0.313000
     20 CAT        -17.7940   -35.4020    -0.3590 ca         1 E2C       0.119000
     21 CAV        -17.5300   -35.3600     1.0300 ca         1 E2C      -0.028000
     22 CAH        -16.5060   -34.4990     1.4940 ca         1 E2C      -0.144000
     23 CAE        -15.7830   -33.6960     0.5930 ca         1 E2C      -0.099000
     24 CAD        -16.0680   -33.7400    -0.7800 ca         1 E2C      -0.117000
     25 CAG        -17.0740   -34.5960    -1.2560 ca         1 E2C      -0.099000
     26 H1         -15.2810   -37.2380     9.0760 hc         1 E2C       0.035533
     27 H2         -16.2580   -35.8420     8.5890 hc         1 E2C       0.035533
     28 H3         -16.3330   -36.4460    10.2600 hc         1 E2C       0.035533
     29 H4         -17.3190   -38.5930     9.4690 h1         1 E2C       0.038450
     30 H5         -17.2000   -38.0850     7.8000 h1         1 E2C       0.038450
     31 H7         -18.8410   -37.6410    10.9640 h1         1 E2C       0.038450
     32 H8         -18.6300   -35.9190    10.6410 h1         1 E2C       0.038450
     33 H9         -20.8790   -36.5380    11.5960 hc         1 E2C       0.035533
     34 H10        -21.0250   -35.7000    10.0450 hc         1 E2C       0.035533
     35 H11        -21.2350   -37.4680    10.1260 hc         1 E2C       0.035533
     36 H12        -18.4580   -35.1740     8.1260 h1         1 E2C       0.028700
     37 H13        -20.1110   -35.7530     8.0510 h1         1 E2C       0.028700
     38 H14        -19.7460   -35.9480     5.8870 hc         1 E2C       0.047700
     39 H15        -19.1040   -37.5260     6.3020 hc         1 E2C       0.047700
     40 H16        -16.7560   -36.4820     6.3140 hc         1 E2C       0.041700
     41 H17        -17.4680   -34.9530     5.8320 hc         1 E2C       0.041700
     42 H18        -17.5760   -37.5600     4.2150 hc         1 E2C       0.051700
     43 H19        -16.4360   -36.2590     3.9510 hc         1 E2C       0.051700
     44 H20        -18.3470   -34.6860     3.4130 h1         1 E2C       0.058200
     45 H21        -19.4870   -36.0000     3.6320 h1         1 E2C       0.058200
     46 H22        -19.5250   -38.2420     3.2140 ha         1 E2C       0.135000
     47 H23        -21.3630   -39.9380    -0.2790 ha         1 E2C       0.135000
     48 H24        -20.3210   -38.1710    -1.7050 ha         1 E2C       0.134000
     49 H25        -16.2550   -34.4370     2.5490 ha         1 E2C       0.118000
     50 H26        -15.0000   -33.0360     0.9630 ha         1 E2C       0.116000
     51 H27        -15.5080   -33.1180    -1.4750 ha         1 E2C       0.120000
     52 H28        -17.2930   -34.6430    -2.3200 ha         1 E2C       0.131000
@<TRIPOS>BOND
     1     1     2 1   
     2     1    26 1   
     3     1    27 1   
     4     1    28 1   
     5     2     3 1   
     6     2    29 1   
     7     2    30 1   
     8     3     4 1   
     9     3     6 1   
    10     4     5 1   
    11     4    31 1   
    12     4    32 1   
    13     5    33 1   
    14     5    34 1   
    15     5    35 1   
    16     6     7 1   
    17     6    36 1   
    18     6    37 1   
    19     7     8 1   
    20     7    38 1   
    21     7    39 1   
    22     8     9 1   
    23     8    40 1   
    24     8    41 1   
    25     9    10 1   
    26     9    42 1   
    27     9    43 1   
    28    10    11 1   
    29    10    44 1   
    30    10    45 1   
    31    11    12 1   
    32    11    21 1   
    33    12    13 ar  
    34    12    18 ar  
    35    13    14 ar  
    36    13    46 1   
    37    14    15 1   
    38    14    16 ar  
    39    16    17 ar  
    40    16    47 1   
    41    17    18 ar  
    42    17    48 1   
    43    18    19 1   
    44    19    20 1   
    45    20    21 ar  
    46    20    25 ar  
    47    21    22 ar  
    48    22    23 ar  
    49    22    49 1   
    50    23    24 ar  
    51    23    50 1   
    52    24    25 ar  
    53    24    51 1   
    54    25    52 1   
@<TRIPOS>SUBSTRUCTURE
     1 E2C         1 TEMP              0 ****  ****    0 ROOT
