@<TRIPOS>MOLECULE
E2C
   52    54     1     0     0
SMALL
bcc


@<TRIPOS>ATOM
      1 CAA        -16.2870   -36.8170     9.1020 c3         1 E2C      -0.110100
      2 CAK        -17.3840   -37.7150     8.5300 c3         1 E2C       0.174800
      3 NAX        -18.7500   -37.2330     8.6460 n3         1 E2C      -0.737600
      4 CAL        -19.1820   -37.1060    10.0300 c3         1 E2C       0.174800
      5 CAB        -20.6860   -37.2610    10.1990 c3         1 E2C      -0.110100
      6 CAP        -19.0480   -36.0460     7.8610 c3         1 E2C       0.178800
      7 CAN        -18.9280   -36.2520     6.3460 c3         1 E2C      -0.083400
      8 CAM        -17.6230   -35.7560     5.7260 c3         1 E2C      -0.075400
      9 CAO        -17.4830   -36.0930     4.2430 c3         1 E2C      -0.108400
     10 CAQ        -18.4870   -35.3480     3.3630 c3         1 E2C       0.048300
     11 NAY        -18.4940   -35.7740     1.9770 na         1 E2C      -0.162100
     12 CAW        -19.2190   -36.8950     1.6020 ca         1 E2C      -0.031600
     13 CAJ        -19.8840   -37.7140     2.5100 ca         1 E2C      -0.166000
     14 CAS        -20.6130   -38.8070     2.0580 ca         1 E2C       0.039400
     15 CLC        -21.4390   -39.7880     3.2260 cl         1 E2C      -0.109400
     16 CAF        -20.6880   -39.1290     0.7190 ca         1 E2C      -0.130000
     17 CAI        -20.0130   -38.3200    -0.1900 ca         1 E2C      -0.179300
     18 CAU        -19.3040   -37.2210     0.2410 ca         1 E2C       0.296000
     19 OAR        -18.7150   -36.4300    -0.6990 os         1 E2C      -0.401800
     20 CAT        -17.7110   -35.5980    -0.2870 ca         1 E2C       0.294000
     21 CAV        -17.5890   -35.2430     1.0610 ca         1 E2C      -0.042600
     22 CAH        -16.5700   -34.3620     1.4090 ca         1 E2C      -0.162000
     23 CAE        -15.7150   -33.8420     0.4410 ca         1 E2C      -0.117000
     24 CAD        -15.8510   -34.2070    -0.8850 ca         1 E2C      -0.135000
     25 CAG        -16.8550   -35.1010    -1.2470 ca         1 E2C      -0.182300
     26 H1         -15.3120   -37.2820     8.9550 hc         1 E2C       0.035533
     27 H2         -16.2580   -35.8400     8.6180 hc         1 E2C       0.035533
     28 H3         -16.4150   -36.6540    10.1730 hc         1 E2C       0.035533
     29 H4         -17.3360   -38.6880     9.0280 h1         1 E2C       0.038450
     30 H5         -17.1750   -37.9160     7.4760 h1         1 E2C       0.038450
     31 H7         -18.6920   -37.8950    10.6060 h1         1 E2C       0.038450
     32 H8         -18.8580   -36.1560    10.4850 h1         1 E2C       0.038450
     33 H9         -20.9510   -37.2170    11.2560 hc         1 E2C       0.035533
     34 H10        -21.2480   -36.4750     9.6940 hc         1 E2C       0.035533
     35 H11        -21.0210   -38.2210     9.8050 hc         1 E2C       0.035533
     36 H12        -18.4410   -35.1750     8.1630 h1         1 E2C       0.028700
     37 H13        -20.0780   -35.7660     8.0830 h1         1 E2C       0.028700
     38 H14        -19.7670   -35.7380     5.8690 hc         1 E2C       0.047700
     39 H15        -19.0700   -37.3160     6.1260 hc         1 E2C       0.047700
     40 H16        -16.7700   -36.1920     6.2510 hc         1 E2C       0.041700
     41 H17        -17.5390   -34.6740     5.8710 hc         1 E2C       0.041700
     42 H18        -17.5980   -37.1720     4.1070 hc         1 E2C       0.051700
     43 H19        -16.4690   -35.8540     3.9130 hc         1 E2C       0.051700
     44 H20        -18.2940   -34.2750     3.3940 h1         1 E2C       0.058200
     45 H21        -19.5030   -35.4610     3.7410 h1         1 E2C       0.058200
     46 H22        -19.8440   -37.5150     3.5710 ha         1 E2C       0.153000
     47 H23        -21.2510   -39.9840     0.3760 ha         1 E2C       0.153000
     48 H24        -20.0560   -38.5410    -1.2490 ha         1 E2C       0.152000
     49 H25        -16.4270   -34.0670     2.4390 ha         1 E2C       0.136000
     50 H26        -14.9370   -33.1530     0.7420 ha         1 E2C       0.134000
     51 H27        -15.1850   -33.8100    -1.6390 ha         1 E2C       0.138000
     52 H28        -16.9850   -35.4030    -2.2780 ha         1 E2C       0.149000
@<TRIPOS>BOND
     1     1     2 1   
     2     1    26 1   
     3     1    27 1   
     4     1    28 1   
     5     2     3 1   
     6     2    29 1   
     7     2    30 1   
     8     3     4 1   
     9     3     6 1   
    10     4     5 1   
    11     4    31 1   
    12     4    32 1   
    13     5    33 1   
    14     5    34 1   
    15     5    35 1   
    16     6     7 1   
    17     6    36 1   
    18     6    37 1   
    19     7     8 1   
    20     7    38 1   
    21     7    39 1   
    22     8     9 1   
    23     8    40 1   
    24     8    41 1   
    25     9    10 1   
    26     9    42 1   
    27     9    43 1   
    28    10    11 1   
    29    10    44 1   
    30    10    45 1   
    31    11    12 1   
    32    11    21 1   
    33    12    13 ar  
    34    12    18 ar  
    35    13    14 ar  
    36    13    46 1   
    37    14    15 1   
    38    14    16 ar  
    39    16    17 ar  
    40    16    47 1   
    41    17    18 ar  
    42    17    48 1   
    43    18    19 1   
    44    19    20 1   
    45    20    21 ar  
    46    20    25 ar  
    47    21    22 ar  
    48    22    23 ar  
    49    22    49 1   
    50    23    24 ar  
    51    23    50 1   
    52    24    25 ar  
    53    24    51 1   
    54    25    52 1   
@<TRIPOS>SUBSTRUCTURE
     1 E2C         1 TEMP              0 ****  ****    0 ROOT
