@<TRIPOS>MOLECULE
E2E
   62    66     1     0     0
SMALL
No Charge or Current Charge


@<TRIPOS>ATOM
      1 O14        -10.6610     2.9320    40.1590 o          1 E2E      -0.564100
      2 C26          1.9990    -0.4430    36.1740 c6         1 E2E       0.190500
      3 C27          2.2450     0.3140    37.5080 c3         1 E2E      -0.114100
      4 C28          3.0390    -0.0400    35.0780 c6         1 E2E       0.148600
      5 C30          4.3290    -2.0350    35.4120 c6         1 E2E       0.140600
      6 C33          0.1520    -4.0190    38.6510 ca         1 E2E       0.426900
      7 C37         -5.6220    -1.2080    38.4480 ca         1 E2E       0.400500
      8 C39         -5.4520    -2.3980    40.4250 ca         1 E2E       0.385900
      9 C01         -5.9120    -1.3040    41.1760 ca         1 E2E      -0.240000
     10 C02         -6.2400    -0.1190    40.5070 ca         1 E2E       0.257000
     11 C04         -6.0970    -0.1040    39.1160 ca         1 E2E      -0.160800
     12 C05         -6.3160     0.9310    38.1450 cc         1 E2E      -0.050400
     13 C06         -6.8870     2.2670    38.2890 ca         1 E2E      -0.055800
     14 C07         -6.2620     3.3700    37.6860 ca         1 E2E      -0.041000
     15 C08         -6.8180     4.6520    37.8080 ca         1 E2E       0.061000
     16 C10         -8.0120     4.8500    38.5390 ca         1 E2E       0.190100
     17 C12         -8.6410     3.7480    39.1750 ca         1 E2E      -0.252600
     18 C13         -9.8810     3.8590    40.0250 c          1 E2E       0.604700
     19 C16         -8.0740     2.4610    39.0170 ca         1 E2E      -0.005000
     20 C17         -5.9550     0.4320    36.9060 cd         1 E2E      -0.131100
     21 C20         -3.4860    -1.8820    36.0010 c          1 E2E       0.589100
     22 C22         -1.5140    -2.8580    37.3250 ca         1 E2E       0.062000
     23 C23         -0.4350    -2.2330    36.6710 ca         1 E2E      -0.262000
     24 C24          0.8830    -2.5320    37.0490 ca         1 E2E       0.647900
     25 C31          3.3600    -2.5450    36.5180 c6         1 E2E       0.180800
     26 C34         -1.2000    -3.7710    38.3480 ca         1 E2E      -0.062000
     27 F03         -6.6520     0.9660    41.1970 f          1 E2E      -0.165000
     28 N15        -10.1370     5.0290    40.6470 nt         1 E2E      -0.603000
     29 N18         -5.5240    -0.9010    37.0920 na         1 E2E      -0.176400
     30 N21         -2.8780    -2.6080    37.0160 ns         1 E2E      -0.146000
     31 N25          1.9900    -1.9240    36.4260 nh         1 E2E      -0.766300
     32 N32          1.1800    -3.4150    38.0150 nb         1 E2E      -0.760000
     33 N38         -5.3000    -2.3570    39.0780 nb         1 E2E      -0.692000
     34 O29          4.3440    -0.5920    35.3650 os         1 E2E      -0.441000
     35 O36         -2.8780    -1.3080    35.1050 o          1 E2E      -0.545100
     36 Cl09        -6.0090     6.0020    37.0050 cl         1 E2E      -0.177000
     37 Cl35        -2.4710    -4.6170    39.2390 cl         1 E2E      -0.202000
     38 H261         1.0200    -0.1140    35.7990 h1         1 E2E       0.071700
     39 H273         1.4780     0.0660    38.2510 hc         1 E2E       0.047033
     40 H272         3.2220     0.0670    37.9390 hc         1 E2E       0.047033
     41 H282         3.1150     1.0540    35.0150 h1         1 E2E       0.055700
     42 H281         2.7020    -0.4090    34.0980 h1         1 E2E       0.055700
     43 H302         5.3460    -2.4010    35.6110 h1         1 E2E       0.054200
     44 H301         4.0140    -2.4250    34.4330 h1         1 E2E       0.054200
     45 H331         0.4200    -4.7270    39.4340 h4         1 E2E       0.030100
     46 H391        -5.1860    -3.3340    40.9140 h4         1 E2E       0.025100
     47 H011        -6.0030    -1.3770    42.2550 ha         1 E2E       0.141000
     48 H071        -5.3440     3.2350    37.1200 ha         1 E2E       0.133000
     49 H161        -8.5540     1.5990    39.4760 ha         1 E2E       0.138000
     50 H171        -5.9930     0.9040    35.9280 h4         1 E2E       0.222000
     51 H231        -0.5980    -1.5280    35.8690 ha         1 E2E       0.159000
     52 H311         3.2930    -3.6390    36.4230 h1         1 E2E       0.064700
     53 H312         3.8050    -2.3320    37.5010 h1         1 E2E       0.064700
     54 H151       -10.9570     5.1060    41.2310 hn         1 E2E       0.304500
     55 H152        -9.4540     5.7730    40.6230 hn         1 E2E       0.304500
     56 H211        -3.5270    -3.0190    37.6770 hn         1 E2E       0.166000
     57 O11         -8.5650     6.1020    38.5650 oh         1 E2E      -0.519100
     58 C19         -5.0170    -1.8480    36.0780 c3         1 E2E      -0.009400
     59 H271         2.2150     1.3990    37.3540 hc         1 E2E       0.047033
     60 H192        -5.4010    -1.5640    35.0910 h1         1 E2E       0.091200
     61 H191        -5.3750    -2.8580    36.3080 h1         1 E2E       0.091200
     62 H111        -9.5410     6.0130    38.5060 ho         1 E2E       0.489000
@<TRIPOS>BOND
     1     1    18 2   
     2     2     3 1   
     3     2     4 1   
     4     2    31 1   
     5     2    38 1   
     6     3    39 1   
     7     3    40 1   
     8     3    59 1   
     9     4    34 1   
    10     4    41 1   
    11     4    42 1   
    12     5    25 1   
    13     5    34 1   
    14     5    43 1   
    15     5    44 1   
    16     6    26 ar  
    17     6    32 ar  
    18     6    45 1   
    19     7    11 ar  
    20     7    29 1   
    21     7    33 ar  
    22     8     9 ar  
    23     8    33 ar  
    24     8    46 1   
    25     9    10 ar  
    26     9    47 1   
    27    10    11 ar  
    28    10    27 1   
    29    11    12 1   
    30    12    13 1   
    31    12    20 2   
    32    13    14 ar  
    33    13    19 ar  
    34    14    15 ar  
    35    14    48 1   
    36    15    16 ar  
    37    15    36 1   
    38    16    17 ar  
    39    16    57 1   
    40    17    18 1   
    41    17    19 ar  
    42    18    28 1   
    43    19    49 1   
    44    20    29 1   
    45    20    50 1   
    46    21    30 1   
    47    21    35 2   
    48    21    58 1   
    49    22    23 ar  
    50    22    26 ar  
    51    22    30 1   
    52    23    24 ar  
    53    23    51 1   
    54    24    31 1   
    55    24    32 ar  
    56    25    31 1   
    57    25    52 1   
    58    25    53 1   
    59    26    37 1   
    60    28    54 1   
    61    28    55 1   
    62    29    58 1   
    63    30    56 1   
    64    57    62 1   
    65    58    60 1   
    66    58    61 1   
@<TRIPOS>SUBSTRUCTURE
     1 E2E         1 TEMP              0 ****  ****    0 ROOT
