@<TRIPOS>MOLECULE
E2E
   62    66     1     0     0
SMALL
bcc


@<TRIPOS>ATOM
      1 O14        -10.5230     3.6170    39.5390 o          1 E2E      -0.564100
      2 C26          1.5970    -0.5720    37.0170 c6         1 E2E       0.190500
      3 C27          2.0090    -1.0100    38.4190 c3         1 E2E      -0.114100
      4 C28          2.4170     0.6060    36.5040 c6         1 E2E       0.125400
      5 C30          3.7680    -0.7290    35.2030 c6         1 E2E       0.117400
      6 C33          0.0280    -4.6300    35.1340 ca         1 E2E       0.492200
      7 C37         -5.3330    -0.9290    39.9890 ca         1 E2E       0.465800
      8 C39         -4.9160    -1.0550    42.1780 ca         1 E2E       0.451200
      9 C01         -5.4180     0.2310    42.3930 ca         1 E2E      -0.323300
     10 C02         -5.8940     0.9410    41.3130 ca         1 E2E       0.221900
     11 C04         -5.8860     0.3700    40.0480 ca         1 E2E      -0.226100
     12 C05         -6.2390     0.7430    38.7090 cc         1 E2E      -0.050400
     13 C06         -6.8340     1.9880    38.2210 ca         1 E2E      -0.055800
     14 C07         -6.3380     2.5890    37.0630 ca         1 E2E      -0.059000
     15 C08         -6.9020     3.7480    36.5720 ca         1 E2E      -0.030600
     16 C10         -7.9600     4.3820    37.2270 ca         1 E2E       0.190100
     17 C12         -8.4590     3.7830    38.3920 ca         1 E2E      -0.252600
     18 C13         -9.6360     4.3370    39.1270 c          1 E2E       0.671700
     19 C16         -7.9100     2.5920    38.8560 ca         1 E2E      -0.023000
     20 C17         -5.8900    -0.3230    37.9280 cd         1 E2E      -0.081100
     21 C20         -3.3290    -2.2650    37.7370 c          1 E2E       0.656100
     22 C22         -1.5310    -3.3990    36.4680 ca         1 E2E       0.154600
     23 C23         -0.5430    -2.4390    36.6140 ca         1 E2E      -0.345300
     24 C24          0.7020    -2.6170    35.9820 ca         1 E2E       0.713200
     25 C31          3.0300    -1.9880    35.6130 c6         1 E2E       0.180800
     26 C34         -1.2250    -4.5320    35.6940 ca         1 E2E      -0.218900
     27 F03         -6.3520     2.1820    41.4860 f          1 E2E      -0.129900
     28 N15         -9.6570     5.6920    39.2480 nt         1 E2E      -0.670000
     29 N18         -5.3680    -1.3340    38.6870 na         1 E2E      -0.147100
     30 N21         -2.7910    -3.3030    37.0380 ns         1 E2E      -0.472100
     31 N25          1.6810    -1.6650    36.0530 nh         1 E2E      -0.766300
     32 N32          0.9700    -3.7120    35.2680 nb         1 E2E      -0.760000
     33 N38         -4.8580    -1.6430    40.9940 nb         1 E2E      -0.692000
     34 O29          3.7450     0.2490    36.2160 os         1 E2E      -0.394600
     35 O36         -2.7580    -1.2340    38.0090 o          1 E2E      -0.545100
     36 CL09        -6.2810     4.4570    35.1240 cl         1 E2E      -0.085400
     37 CL35        -2.3830    -5.7950    35.4410 cl         1 E2E      -0.110400
     38 H261         0.5700    -0.2050    37.0460 h1         1 E2E       0.071700
     39 H273         1.4010    -1.8470    38.7640 hc         1 E2E       0.047033
     40 H272         3.0540    -1.3170    38.4560 hc         1 E2E       0.047033
     41 H282         2.4400     1.3890    37.2630 h1         1 E2E       0.055700
     42 H281         1.9290     1.0180    35.6080 h1         1 E2E       0.055700
     43 H302         4.8110    -0.9710    34.9970 h1         1 E2E       0.054200
     44 H301         3.3240    -0.3310    34.2790 h1         1 E2E       0.054200
     45 H331         0.2810    -5.5050    34.5440 h4         1 E2E       0.030100
     46 H391        -4.5370    -1.6210    43.0200 h4         1 E2E       0.025100
     47 H011        -5.4210     0.6590    43.3860 ha         1 E2E       0.159000
     48 H071        -5.4950     2.1520    36.5420 ha         1 E2E       0.151000
     49 H161        -8.3490     2.1300    39.7290 ha         1 E2E       0.156000
     50 H171        -6.0040    -0.4460    36.8620 h4         1 E2E       0.172000
     51 H231        -0.7490    -1.5690    37.2100 ha         1 E2E       0.177000
     52 H311         2.9830    -2.6580    34.7580 h1         1 E2E       0.064700
     53 H312         3.5840    -2.5110    36.4020 h1         1 E2E       0.064700
     54 H151       -10.4110     6.0910    39.7890 hn         1 E2E       0.304500
     55 H152        -8.7810     6.1890    39.3370 hn         1 E2E       0.304500
     56 H211        -3.4030    -4.0910    36.8730 hn         1 E2E       0.332500
     57 O11         -8.4470     5.4980    36.6750 oh         1 E2E      -0.480100
     58 C19         -4.7690    -2.5250    38.1730 c3         1 E2E      -0.038700
     59 H271         1.8770    -0.1900    39.1270 hc         1 E2E       0.047033
     60 H192        -5.3610    -2.9010    37.3360 h1         1 E2E       0.091200
     61 H191        -4.7780    -3.2980    38.9440 h1         1 E2E       0.091200
     62 H111        -9.1620     5.8670    37.2170 ho         1 E2E       0.450000
@<TRIPOS>BOND
     1     1    18 2   
     2     2     3 1   
     3     2     4 1   
     4     2    31 1   
     5     2    38 1   
     6     3    39 1   
     7     3    40 1   
     8     3    59 1   
     9     4    34 1   
    10     4    41 1   
    11     4    42 1   
    12     5    25 1   
    13     5    34 1   
    14     5    43 1   
    15     5    44 1   
    16     6    26 ar  
    17     6    32 ar  
    18     6    45 1   
    19     7    11 ar  
    20     7    29 1   
    21     7    33 ar  
    22     8     9 ar  
    23     8    33 ar  
    24     8    46 1   
    25     9    10 ar  
    26     9    47 1   
    27    10    11 ar  
    28    10    27 1   
    29    11    12 1   
    30    12    13 1   
    31    12    20 2   
    32    13    14 ar  
    33    13    19 ar  
    34    14    15 ar  
    35    14    48 1   
    36    15    16 ar  
    37    15    36 1   
    38    16    17 ar  
    39    16    57 1   
    40    17    18 1   
    41    17    19 ar  
    42    18    28 1   
    43    19    49 1   
    44    20    29 1   
    45    20    50 1   
    46    21    30 1   
    47    21    35 2   
    48    21    58 1   
    49    22    23 ar  
    50    22    26 ar  
    51    22    30 1   
    52    23    24 ar  
    53    23    51 1   
    54    24    31 1   
    55    24    32 ar  
    56    25    31 1   
    57    25    52 1   
    58    25    53 1   
    59    26    37 1   
    60    28    54 1   
    61    28    55 1   
    62    29    58 1   
    63    30    56 1   
    64    57    62 1   
    65    58    60 1   
    66    58    61 1   
@<TRIPOS>SUBSTRUCTURE
     1 E2E         1 TEMP              0 ****  ****    0 ROOT
