@<TRIPOS>MOLECULE
E2F
   44    47     1     0     0
SMALL
No Charge or Current Charge


@<TRIPOS>ATOM
      1 C4          16.8340   -34.7100    -1.1360 ca         1 E2F      -0.143000
      2 C5          16.0350   -33.7920    -0.4320 ca         1 E2F      -0.099000
      3 C6          16.1610   -33.6650     0.9600 ca         1 E2F      -0.116000
      4 C7          17.0840   -34.4640     1.6520 ca         1 E2F      -0.099000
      5 C8          17.8810   -35.3840     0.9520 ca         1 E2F       0.120000
      6 C10         19.4030   -37.2180     1.0460 ca         1 E2F       0.122000
      7 C13         20.6910   -39.4020    -0.1470 ca         1 E2F       0.131000
      8 C15         20.1230   -38.1260     1.8390 ca         1 E2F      -0.096000
      9 C17         18.0410   -37.0370    -3.5250 c3         1 E2F      -0.106400
     10 C20         18.4230   -36.9190    -5.0320 c6         1 E2F      -0.058700
     11 C21         17.5580   -37.8720    -5.9030 c6         1 E2F      -0.073900
     12 C22         17.9080   -37.7380    -7.4060 c6         1 E2F       0.159800
     13 N2          18.6110   -36.4350    -1.1250 na         1 E2F      -0.090000
     14 C11         19.3230   -37.3800    -0.3580 ca         1 E2F      -0.015000
     15 C3          17.7770   -35.5170    -0.4530 ca         1 E2F      -0.030000
     16 C12         19.9740   -38.4930    -0.9440 ca         1 E2F      -0.149000
     17 N23         17.7750   -36.3350    -7.8660 n7         1 E2F      -0.861400
     18 Cl1         21.4940   -40.7740    -0.8960 cl         1 E2F      -0.204000
     19 C18         18.6210   -35.3990    -7.0880 c6         1 E2F       0.159800
     20 C14         20.7700   -39.2200     1.2420 ca         1 E2F      -0.112000
     21 C19         18.2970   -35.4660    -5.5740 c6         1 E2F      -0.073900
     22 O9          18.7570   -36.1730     1.6580 os         1 E2F      -0.314000
     23 H1          16.7070   -34.7790    -2.2120 ha         1 E2F       0.120000
     24 H2          15.3160   -33.1760    -0.9680 ha         1 E2F       0.117000
     25 H3          15.5410   -32.9530     1.5020 ha         1 E2F       0.120000
     26 H4          17.1800   -34.3780     2.7320 ha         1 E2F       0.131000
     27 H5          20.1720   -37.9840     2.9160 ha         1 E2F       0.135000
     28 H6          16.9990   -36.7270    -3.3850 hc         1 E2F       0.053200
     29 H7          18.0730   -38.0920    -3.2300 hc         1 E2F       0.053200
     30 H8          19.4730   -37.2350    -5.1150 hc         1 E2F       0.041700
     31 H9          16.4920   -37.6500    -5.7570 hc         1 E2F       0.046450
     32 H10         17.7070   -38.9130    -5.5870 hc         1 E2F       0.046450
     33 H11         17.2420   -38.3830    -7.9980 h1         1 E2F       0.029450
     34 H12         18.9400   -38.0810    -7.5740 h1         1 E2F       0.029450
     35 H13         19.9930   -36.5080    -2.7230 h1         1 E2F       0.057700
     36 H14         18.8730   -35.1600    -2.7860 h1         1 E2F       0.057700
     37 H15         19.9380   -38.6710    -2.0140 ha         1 E2F       0.133000
     38 H17         18.0490   -36.2840    -8.8560 hn         1 E2F       0.411000
     39 H18         19.6810   -35.6480    -7.2460 h1         1 E2F       0.029450
     40 H19         18.4630   -34.3730    -7.4530 h1         1 E2F       0.029450
     41 H20         21.3260   -39.9270     1.8520 ha         1 E2F       0.135000
     42 H21         18.9780   -34.7930    -5.0370 hc         1 E2F       0.046450
     43 H22         17.2800   -35.0870    -5.4010 hc         1 E2F       0.046450
     44 C1          18.9450   -36.2300    -2.5580 c3         1 E2F       0.078600
@<TRIPOS>BOND
     1     1     2 ar  
     2     1    15 ar  
     3     1    23 1   
     4     2     3 ar  
     5     2    24 1   
     6     3     4 ar  
     7     3    25 1   
     8     4     5 ar  
     9     4    26 1   
    10     5    15 ar  
    11     5    22 1   
    12     6     8 ar  
    13     6    14 ar  
    14     6    22 1   
    15     7    16 ar  
    16     7    18 1   
    17     7    20 ar  
    18     8    20 ar  
    19     8    27 1   
    20     9    10 1   
    21     9    28 1   
    22     9    29 1   
    23     9    44 1   
    24    10    11 1   
    25    10    21 1   
    26    10    30 1   
    27    11    12 1   
    28    11    31 1   
    29    11    32 1   
    30    12    17 1   
    31    12    33 1   
    32    12    34 1   
    33    13    14 1   
    34    13    15 1   
    35    13    44 1   
    36    14    16 ar  
    37    16    37 1   
    38    17    19 1   
    39    17    38 1   
    40    19    21 1   
    41    19    39 1   
    42    19    40 1   
    43    20    41 1   
    44    21    42 1   
    45    21    43 1   
    46    35    44 1   
    47    36    44 1   
@<TRIPOS>SUBSTRUCTURE
     1 E2F         1 TEMP              0 ****  ****    0 ROOT
