@<TRIPOS>MOLECULE
E2F
   44    47     1     0     0
SMALL
abcg2


@<TRIPOS>ATOM
      1 C4          17.1060   -34.5400    -1.2240 ca         1 E2F      -0.143000
      2 C5          16.2010   -33.7350    -0.5380 ca         1 E2F      -0.099000
      3 C6          16.1190   -33.7890     0.8410 ca         1 E2F      -0.116000
      4 C7          16.9530   -34.6570     1.5400 ca         1 E2F      -0.099000
      5 C8          17.8610   -35.4370     0.8570 ca         1 E2F       0.120000
      6 C10         19.3130   -37.2650     0.9500 ca         1 E2F       0.122000
      7 C13         20.6680   -39.3270    -0.2480 ca         1 E2F       0.131000
      8 C15         19.8300   -38.2850     1.7160 ca         1 E2F      -0.096000
      9 C17         18.1590   -36.9390    -3.4330 c3         1 E2F      -0.106400
     10 C20         18.4580   -36.8710    -4.9280 c6         1 E2F      -0.058700
     11 C21         17.6360   -37.9030    -5.7000 c6         1 E2F      -0.073900
     12 C22         17.8910   -37.8070    -7.1970 c6         1 E2F       0.159800
     13 N2          18.9090   -36.2040    -1.1650 na         1 E2F      -0.090000
     14 C11         19.4470   -37.2600    -0.4460 ca         1 E2F      -0.015000
     15 C3          17.9600   -35.3990    -0.5380 ca         1 E2F      -0.030000
     16 C12         20.1330   -38.3160    -1.0380 ca         1 E2F      -0.149000
     17 N23         17.5960   -36.4650    -7.6660 n7         1 E2F      -0.861400
     18 CL1         21.5240   -40.6190    -1.0290 cl         1 E2F      -0.204000
     19 C18         18.4450   -35.4770    -7.0250 c6         1 E2F       0.159800
     20 C14         20.5280   -39.3330     1.1230 ca         1 E2F      -0.112000
     21 C19         18.2110   -35.4830    -5.5210 c6         1 E2F      -0.073900
     22 O9          18.6970   -36.2320     1.5920 os         1 E2F      -0.314000
     23 H1          17.1330   -34.4830    -2.3030 ha         1 E2F       0.120000
     24 H2          15.5600   -33.0710    -1.1010 ha         1 E2F       0.117000
     25 H3          15.4150   -33.1690     1.3800 ha         1 E2F       0.120000
     26 H4          16.9100   -34.7190     2.6200 ha         1 E2F       0.131000
     27 H5          19.7060   -38.2550     2.7910 ha         1 E2F       0.135000
     28 H6          17.1290   -36.6140    -3.2510 hc         1 E2F       0.053200
     29 H7          18.2080   -37.9820    -3.1060 hc         1 E2F       0.053200
     30 H8          19.5200   -37.1170    -5.0730 hc         1 E2F       0.041700
     31 H9          16.5700   -37.7420    -5.5030 hc         1 E2F       0.046450
     32 H10         17.8770   -38.9110    -5.3530 hc         1 E2F       0.046450
     33 H11         17.2540   -38.5170    -7.7300 h1         1 E2F       0.029450
     34 H12         18.9340   -38.1040    -7.3980 h1         1 E2F       0.029450
     35 H13         20.1550   -36.3990    -2.8030 h1         1 E2F       0.057700
     36 H14         19.0730   -35.0490    -2.8650 h1         1 E2F       0.057700
     37 H15         20.2590   -38.3650    -2.1100 ha         1 E2F       0.133000
     38 H17         17.7280   -36.4220    -8.6680 hn         1 E2F       0.411000
     39 H18         19.5170   -35.6550    -7.2140 h1         1 E2F       0.029450
     40 H19         18.2120   -34.4920    -7.4340 h1         1 E2F       0.029450
     41 H20         20.9440   -40.1260     1.7280 ha         1 E2F       0.135000
     42 H21         18.8570   -34.7330    -5.0580 hc         1 E2F       0.046450
     43 H22         17.1780   -35.1800    -5.3150 hc         1 E2F       0.046450
     44 C1          19.1250   -36.1040    -2.5950 c3         1 E2F       0.078600
@<TRIPOS>BOND
     1     1     2 ar  
     2     1    15 ar  
     3     1    23 1   
     4     2     3 ar  
     5     2    24 1   
     6     3     4 ar  
     7     3    25 1   
     8     4     5 ar  
     9     4    26 1   
    10     5    15 ar  
    11     5    22 1   
    12     6     8 ar  
    13     6    14 ar  
    14     6    22 1   
    15     7    16 ar  
    16     7    18 1   
    17     7    20 ar  
    18     8    20 ar  
    19     8    27 1   
    20     9    10 1   
    21     9    28 1   
    22     9    29 1   
    23     9    44 1   
    24    10    11 1   
    25    10    21 1   
    26    10    30 1   
    27    11    12 1   
    28    11    31 1   
    29    11    32 1   
    30    12    17 1   
    31    12    33 1   
    32    12    34 1   
    33    13    14 1   
    34    13    15 1   
    35    13    44 1   
    36    14    16 ar  
    37    16    37 1   
    38    17    19 1   
    39    17    38 1   
    40    19    21 1   
    41    19    39 1   
    42    19    40 1   
    43    20    41 1   
    44    21    42 1   
    45    21    43 1   
    46    35    44 1   
    47    36    44 1   
@<TRIPOS>SUBSTRUCTURE
     1 E2F         1 TEMP              0 ****  ****    0 ROOT
