@<TRIPOS>MOLECULE
E2G
   44    45     1     0     0
SMALL
bcc


@<TRIPOS>ATOM
      1 C17         -1.0050    -1.3910     1.3470 c3         1 E2G       0.076700
      2 C1          -2.0750    -0.6960    -0.7420 c          1 E2G       0.685100
      3 C29          1.6490    -3.5700     0.0050 c3         1 E2G      -0.182100
      4 C28          2.2820    -2.2370    -0.3020 c          1 E2G       0.670100
      5 O6           3.3960    -1.9450     0.1130 o          1 E2G      -0.608100
      6 N           -3.9920     0.7700    -0.3410 n8         1 E2G      -0.948800
      7 C18          0.2410    -0.7050     1.8150 cc         1 E2G       0.364800
      8 O2          -1.4660    -1.4850    -1.4520 o          1 E2G      -0.601100
      9 C19          1.9940     0.5510     2.0070 cc         1 E2G       0.412800
     10 C20          2.9820     1.6260     1.7640 c3         1 E2G      -0.123400
     11 C21          0.4800     1.1980     0.1670 ca         1 E2G       0.004800
     12 C22         -0.3720     2.2580     0.4490 ca         1 E2G      -0.121000
     13 C23         -0.7420     3.1400    -0.5520 ca         1 E2G      -0.131000
     14 C24         -0.2560     2.9540    -1.8390 ca         1 E2G      -0.127000
     15 C25          0.5930     1.8920    -2.1110 ca         1 E2G      -0.120000
     16 C26          0.9860     0.9990    -1.1170 ca         1 E2G      -0.078300
     17 C27          1.9700    -0.0930    -1.4540 c3         1 E2G       0.143300
     18 N9           1.5370    -1.4080    -1.0560 ns         1 E2G      -0.581900
     19 N8           0.8780     0.3570     1.2440 na         1 E2G      -0.277800
     20 N7           2.0250    -0.3300     2.9620 nd         1 E2G      -0.348000
     21 N6           0.9240    -1.1150     2.8420 nd         1 E2G      -0.364000
     22 N5          -1.9060    -0.5810     0.5810 ns         1 E2G      -0.563900
     23 CA          -3.0670     0.3100    -1.3350 c3         1 E2G       0.280300
     24 H1          -0.7350    -2.2660     0.7560 h1         1 E2G       0.081700
     25 H2          -1.5150    -1.7690     2.2330 h1         1 E2G       0.081700
     26 H3           1.5360    -3.6730     1.0850 hc         1 E2G       0.063700
     27 H4           0.6770    -3.7160    -0.4630 hc         1 E2G       0.063700
     28 H5           2.3110    -4.3700    -0.3280 hc         1 E2G       0.063700
     29 H6          -4.4540     1.6210    -0.6310 hn         1 E2G       0.365300
     30 H7          -4.7050     0.0770    -0.1500 hn         1 E2G       0.365300
     31 H9           3.4690     1.5120     0.7950 hc         1 E2G       0.060700
     32 H10          2.5150     2.6110     1.7840 hc         1 E2G       0.060700
     33 H11          3.7490     1.5930     2.5340 hc         1 E2G       0.060700
     34 H12         -0.7380     2.3890     1.4590 ha         1 E2G       0.148000
     35 H13         -1.4050     3.9640    -0.3280 ha         1 E2G       0.139000
     36 H14         -0.5390     3.6330    -2.6320 ha         1 E2G       0.138000
     37 H15          0.9670     1.7530    -3.1190 ha         1 E2G       0.142000
     38 H16          2.1550    -0.0700    -2.5310 h1         1 E2G       0.065700
     39 H17          2.9290     0.1060    -0.9750 h1         1 E2G       0.065700
     40 H18          0.6160    -1.6990    -1.3540 hn         1 E2G       0.343500
     41 H19         -2.4970     0.0890     1.0530 hn         1 E2G       0.345500
     42 H20         -2.4630     1.1800    -1.6260 h2         1 E2G       0.064700
     43 OXT         -3.6250    -0.3080    -2.4640 oh         1 E2G      -0.583800
     44 H8          -4.1000     0.3630    -2.9630 ho         1 E2G       0.403000
@<TRIPOS>BOND
     1     1     7 1   
     2     1    22 1   
     3     1    24 1   
     4     1    25 1   
     5     2     8 2   
     6     2    22 1   
     7     2    23 1   
     8     3     4 1   
     9     3    26 1   
    10     3    27 1   
    11     3    28 1   
    12     4     5 2   
    13     4    18 1   
    14     6    23 1   
    15     6    29 1   
    16     6    30 1   
    17     7    19 1   
    18     7    21 2   
    19     9    10 1   
    20     9    19 1   
    21     9    20 2   
    22    10    31 1   
    23    10    32 1   
    24    10    33 1   
    25    11    12 ar  
    26    11    16 ar  
    27    11    19 1   
    28    12    13 ar  
    29    12    34 1   
    30    13    14 ar  
    31    13    35 1   
    32    14    15 ar  
    33    14    36 1   
    34    15    16 ar  
    35    15    37 1   
    36    16    17 1   
    37    17    18 1   
    38    17    38 1   
    39    17    39 1   
    40    18    40 1   
    41    20    21 1   
    42    22    41 1   
    43    23    42 1   
    44    23    43 1   
    45    43    44 1   
@<TRIPOS>SUBSTRUCTURE
     1 E2G         1 TEMP              0 ****  ****    0 ROOT
