@<TRIPOS>MOLECULE
E2G
   44    45     1     0     0
SMALL
No Charge or Current Charge


@<TRIPOS>ATOM
      1 C17         -0.6950    -1.2230     1.5730 c3         1 E2G       0.076700
      2 C1          -2.0060    -0.5860    -0.5050 c          1 E2G       0.618100
      3 C29          1.1790    -3.9550    -1.4860 c3         1 E2G      -0.182100
      4 C28          2.1220    -2.7890    -1.2280 c          1 E2G       0.603100
      5 O6           3.3240    -2.9340    -1.0610 o          1 E2G      -0.608100
      6 N           -4.2180     0.7340    -0.0630 n8         1 E2G      -1.059200
      7 C18          0.3950    -0.3460     2.1600 cc         1 E2G       0.364800
      8 O2          -1.3470    -1.3170    -1.2380 o          1 E2G      -0.601100
      9 C19          1.9280     1.2350     2.4500 cc         1 E2G       0.412800
     10 C20          2.8060     2.4310     2.2200 c3         1 E2G      -0.123400
     11 C21          0.6800     1.3060     0.3490 ca         1 E2G       0.004800
     12 C22         -0.2300     2.3800     0.3640 ca         1 E2G      -0.103000
     13 C23         -0.6170     3.0020    -0.8340 ca         1 E2G      -0.113000
     14 C24         -0.0930     2.5530    -2.0550 ca         1 E2G      -0.109000
     15 C25          0.8220     1.4870    -2.0770 ca         1 E2G      -0.102000
     16 C26          1.2200     0.8590    -0.8810 ca         1 E2G      -0.078300
     17 C27          2.2110    -0.2990    -0.9530 c3         1 E2G       0.143300
     18 N9           1.5180    -1.5590    -1.1960 ns         1 E2G      -0.514900
     19 N8           1.0340     0.7110     1.5580 na         1 E2G      -0.277800
     20 N7           1.8860     0.4920     3.5460 nd         1 E2G      -0.348000
     21 N6           0.9310    -0.4950     3.3640 nd         1 E2G      -0.364000
     22 N5          -1.7690    -0.5110     0.8530 ns         1 E2G      -0.496900
     23 CA          -3.1940     0.3380    -1.0350 c3         1 E2G       0.303500
     24 H1          -0.2230    -1.9580     0.9100 h1         1 E2G       0.081700
     25 H2          -1.1560    -1.7890     2.3930 h1         1 E2G       0.081700
     26 H3           0.3820    -3.9420    -0.7350 hc         1 E2G       0.063700
     27 H4           0.6260    -3.7680    -2.4130 hc         1 E2G       0.063700
     28 H5           1.6970    -4.9200    -1.5090 hc         1 E2G       0.063700
     29 H6          -4.9210     1.2670    -0.5850 hn         1 E2G       0.420500
     30 H7          -4.7350    -0.1160     0.1830 hn         1 E2G       0.420500
     31 H9           3.3650     2.3250     1.2830 hc         1 E2G       0.060700
     32 H10          2.2040     3.3440     2.1570 hc         1 E2G       0.060700
     33 H11          3.5280     2.5520     3.0350 hc         1 E2G       0.060700
     34 H12         -0.6430     2.7310     1.3070 ha         1 E2G       0.130000
     35 H13         -1.3220     3.8300    -0.8150 ha         1 E2G       0.121000
     36 H14         -0.3920     3.0320    -2.9850 ha         1 E2G       0.120000
     37 H15          1.2220     1.1470    -3.0300 ha         1 E2G       0.124000
     38 H16          2.9230    -0.1230    -1.7710 h1         1 E2G       0.065700
     39 H17          2.7890    -0.3750    -0.0230 h1         1 E2G       0.065700
     40 H18          0.5110    -1.5350    -1.3430 hn         1 E2G       0.343500
     41 H19         -2.3830     0.1150     1.3640 hn         1 E2G       0.345500
     42 H20         -2.7460     1.2310    -1.4920 h2         1 E2G       0.064700
     43 OXT         -4.0120    -0.3130    -1.9910 oh         1 E2G      -0.646000
     44 H8          -3.3960    -0.7320    -2.6330 ho         1 E2G       0.442000
@<TRIPOS>BOND
     1     1     7 1   
     2     1    22 1   
     3     1    24 1   
     4     1    25 1   
     5     2     8 2   
     6     2    22 1   
     7     2    23 1   
     8     3     4 1   
     9     3    26 1   
    10     3    27 1   
    11     3    28 1   
    12     4     5 2   
    13     4    18 1   
    14     6    23 1   
    15     6    29 1   
    16     6    30 1   
    17     7    19 1   
    18     7    21 2   
    19     9    10 1   
    20     9    19 1   
    21     9    20 2   
    22    10    31 1   
    23    10    32 1   
    24    10    33 1   
    25    11    12 ar  
    26    11    16 ar  
    27    11    19 1   
    28    12    13 ar  
    29    12    34 1   
    30    13    14 ar  
    31    13    35 1   
    32    14    15 ar  
    33    14    36 1   
    34    15    16 ar  
    35    15    37 1   
    36    16    17 1   
    37    17    18 1   
    38    17    38 1   
    39    17    39 1   
    40    18    40 1   
    41    20    21 1   
    42    22    41 1   
    43    23    42 1   
    44    23    43 1   
    45    43    44 1   
@<TRIPOS>SUBSTRUCTURE
     1 E2G         1 TEMP              0 ****  ****    0 ROOT
