@<TRIPOS>MOLECULE
E2H
   27    29     1     0     0
SMALL
No Charge or Current Charge


@<TRIPOS>ATOM
      1 C10         60.1720    78.8480   142.1010 cx         1 E2H      -0.118900
      2 C13         57.7100    76.1990   141.7630 c2         1 E2H       0.995100
      3 C15         56.4050    73.8100   142.3380 cc         1 E2H      -0.513500
      4 C17         54.9020    73.4020   144.2540 cc         1 E2H       0.003000
      5 C09         59.2790    78.0390   141.1960 cx         1 E2H       0.192200
      6 C11         60.6200    77.4890   141.6110 cx         1 E2H      -0.118900
      7 C12         58.9800    78.4820   139.7690 c3         1 E2H      -0.074100
      8 C14         56.2150    74.8910   143.0860 cd         1 E2H       0.363000
      9 C16         55.3610    74.6960   144.1940 cd         1 E2H      -0.172000
     10 N06         58.0860    77.4850   141.7610 nu         1 E2H      -0.870400
     11 N07         56.8350    76.0340   142.7600 nu         1 E2H      -0.939200
     12 N08         58.0760    75.3520   140.9010 ne         1 E2H      -0.894300
     13 S02         57.4660    73.8430   140.9870 sy         1 E2H       1.301100
     14 S03         55.5440    72.4160   142.9300 ss         1 E2H       0.422000
     15 Cl1         53.8320    72.7620   145.4640 cl         1 E2H      -0.125000
     16 H1          60.6620    79.7230   141.6820 hc         1 E2H       0.082700
     17 H2          59.8900    78.9410   143.1460 hc         1 E2H       0.082700
     18 H3          60.6370    76.6720   142.3270 hc         1 E2H       0.082700
     19 H4          61.4060    77.4530   140.8610 hc         1 E2H       0.082700
     20 H5          58.1800    79.2310   139.7460 hc         1 E2H       0.051700
     21 H6          59.8660    78.9290   139.3030 hc         1 E2H       0.051700
     22 H7          58.6720    77.6340   139.1460 hc         1 E2H       0.051700
     23 H8          55.1000    75.4690   144.9070 ha         1 E2H       0.148000
     24 H9          57.2910    78.0870   141.9240 hn         1 E2H       0.492000
     25 H10         56.9170    76.7200   143.4970 hn         1 E2H       0.513000
     26 O04         58.5520    72.9150   141.3170 o          1 E2H      -0.543500
     27 O05         56.6170    73.6120   139.8140 o          1 E2H      -0.543500
@<TRIPOS>BOND
     1     1     5 1   
     2     1     6 1   
     3     1    16 1   
     4     1    17 1   
     5     2    10 1   
     6     2    11 1   
     7     2    12 2   
     8     3     8 2   
     9     3    13 1   
    10     3    14 1   
    11     4     9 2   
    12     4    14 1   
    13     4    15 1   
    14     5     6 1   
    15     5     7 1   
    16     5    10 1   
    17     6    18 1   
    18     6    19 1   
    19     7    20 1   
    20     7    21 1   
    21     7    22 1   
    22     8     9 1   
    23     8    11 1   
    24     9    23 1   
    25    10    24 1   
    26    11    25 1   
    27    12    13 1   
    28    13    26 2   
    29    13    27 2   
@<TRIPOS>SUBSTRUCTURE
     1 E2H         1 TEMP              0 ****  ****    0 ROOT
