@<TRIPOS>MOLECULE
E2H
   27    29     1     0     0
SMALL
abcg2


@<TRIPOS>ATOM
      1 C10         60.3730    78.8500   141.8010 cx         1 E2H      -0.118900
      2 C13         57.7440    76.3640   142.1320 c2         1 E2H       0.995100
      3 C15         56.4780    73.8380   142.3730 cc         1 E2H      -0.513500
      4 C17         54.7170    73.3180   143.9690 cc         1 E2H       0.003000
      5 C09         59.2780    78.0210   141.2020 cx         1 E2H       0.192200
      6 C11         60.6460    77.4410   141.3710 cx         1 E2H      -0.118900
      7 C12         58.7730    78.3580   139.8220 c3         1 E2H      -0.074100
      8 C14         56.1490    74.9060   143.1580 cd         1 E2H       0.363000
      9 C16         55.1200    74.6080   144.0930 cd         1 E2H      -0.172000
     10 N06         58.2730    77.5930   142.1330 nu         1 E2H      -0.870400
     11 N07         56.7570    76.1300   143.0420 nu         1 E2H      -0.939200
     12 N08         58.1870    75.4720   141.2910 ne         1 E2H      -0.894300
     13 S02         57.7120    73.9460   141.1560 sy         1 E2H       1.301100
     14 S03         55.5450    72.4410   142.7430 ss         1 E2H       0.422000
     15 CL1         53.5140    72.5480   144.8900 cl         1 E2H      -0.125000
     16 H1          60.7620    79.6640   141.2030 hc         1 E2H       0.082700
     17 H2          60.3320    79.0540   142.8630 hc         1 E2H       0.082700
     18 H3          60.7920    76.6960   142.1420 hc         1 E2H       0.082700
     19 H4          61.2260    77.2740   140.4720 hc         1 E2H       0.082700
     20 H5          58.0260    79.1520   139.8640 hc         1 E2H       0.051700
     21 H6          59.5900    78.7010   139.1880 hc         1 E2H       0.051700
     22 H7          58.3220    77.4870   139.3440 hc         1 E2H       0.051700
     23 H8          54.7150    75.3120   144.8050 ha         1 E2H       0.148000
     24 H9          57.8450    78.3030   142.7080 hn         1 E2H       0.492000
     25 H10         56.4750    76.8650   143.6750 hn         1 E2H       0.513000
     26 O04         58.8080    73.0540   141.5010 o          1 E2H      -0.543500
     27 O05         57.1170    73.7380   139.8440 o          1 E2H      -0.543500
@<TRIPOS>BOND
     1     1     5 1   
     2     1     6 1   
     3     1    16 1   
     4     1    17 1   
     5     2    10 1   
     6     2    11 1   
     7     2    12 2   
     8     3     8 2   
     9     3    13 1   
    10     3    14 1   
    11     4     9 2   
    12     4    14 1   
    13     4    15 1   
    14     5     6 1   
    15     5     7 1   
    16     5    10 1   
    17     6    18 1   
    18     6    19 1   
    19     7    20 1   
    20     7    21 1   
    21     7    22 1   
    22     8     9 1   
    23     8    11 1   
    24     9    23 1   
    25    10    24 1   
    26    11    25 1   
    27    12    13 1   
    28    13    26 2   
    29    13    27 2   
@<TRIPOS>SUBSTRUCTURE
     1 E2H         1 TEMP              0 ****  ****    0 ROOT
