@<TRIPOS>MOLECULE
E2I
   43    44     1     0     0
SMALL
bcc


@<TRIPOS>ATOM
      1 N1          -2.7950    -0.0670    -0.4570 nb         1 E2I      -0.703500
      2 C2          -3.8940    -0.7610    -0.7360 ca         1 E2I       0.449700
      3 C3          -5.1680    -0.2190    -0.6760 ca         1 E2I      -0.319900
      4 C4          -5.2140     1.1200    -0.3010 ca         1 E2I       0.449700
      5 N5          -4.1330     1.8290    -0.0190 nb         1 E2I      -0.703500
      6 C6          -2.9710     1.1940    -0.1100 ca         1 E2I       0.732300
      7 C13         -6.4020    -1.0220    -0.9450 c3         1 E2I      -0.021100
      8 C15         -7.0270    -1.5630     0.3430 c3         1 E2I      -0.075400
      9 C17         -8.2840    -2.3830     0.0860 c3         1 E2I      -0.075400
     10 C19         -8.9110    -2.9110     1.3690 c3         1 E2I      -0.089100
     11 S21         -1.5940     2.2110     0.2810 ss         1 E2I      -0.177400
     12 C23         -0.2340     1.0430     0.0580 c3         1 E2I      -0.137300
     13 C25          1.0580     1.7600     0.3420 c          1 E2I       0.588700
     14 O27          1.0650     2.9240     0.6740 o          1 E2I      -0.493100
     15 C29          2.3270     0.9910     0.2040 ca         1 E2I      -0.120600
     16 C31          3.5320     1.6290     0.5050 ca         1 E2I      -0.104000
     17 C32          4.7300     0.9540     0.3860 ca         1 E2I      -0.042500
     18 C33          4.7200    -0.3690    -0.0400 ca         1 E2I      -0.241500
     19 C34          3.5380    -1.0220    -0.3460 ca         1 E2I      -0.042500
     20 C35          2.3400    -0.3360    -0.2170 ca         1 E2I      -0.104000
     21 S42          6.2680    -1.2240    -0.2090 sy         1 E2I       1.269200
     22 O44          6.0260    -2.4220    -0.9990 o          1 E2I      -0.611300
     23 O46          7.2800    -0.2820    -0.6600 o          1 E2I      -0.611300
     24 N48          6.6140    -1.5520     1.3680 n8         1 E2I      -0.898700
     25 H2          -3.7480    -1.7980    -1.0230 h4         1 E2I       0.025600
     26 H4          -6.1650     1.6400    -0.2270 h4         1 E2I       0.025600
     27 H13         -7.1350    -0.4070    -1.4730 hc         1 E2I       0.051200
     28 H13A        -6.1570    -1.8540    -1.6100 hc         1 E2I       0.051200
     29 H15         -6.2890    -2.1740     0.8730 hc         1 E2I       0.043200
     30 H15A        -7.2640    -0.7270     1.0080 hc         1 E2I       0.043200
     31 H17         -9.0120    -1.7700    -0.4550 hc         1 E2I       0.038200
     32 H17A        -8.0410    -3.2190    -0.5770 hc         1 E2I       0.038200
     33 H19         -8.2130    -3.5490     1.9140 hc         1 E2I       0.033700
     34 H19A        -9.1960    -2.0930     2.0330 hc         1 E2I       0.033700
     35 H19B        -9.8060    -3.4980     1.1640 hc         1 E2I       0.033700
     36 H23         -0.3440     0.1920     0.7340 h1         1 E2I       0.099700
     37 H23A        -0.2350     0.6460    -0.9590 h1         1 E2I       0.099700
     38 H31          3.5340     2.6600     0.8320 ha         1 E2I       0.151000
     39 H32          5.6580     1.4570     0.6210 ha         1 E2I       0.159500
     40 H34          3.5360    -2.0490    -0.6830 ha         1 E2I       0.159500
     41 H35          1.4220    -0.8550    -0.4580 ha         1 E2I       0.151000
     42 HN48         6.0770    -2.3280     1.7390 hn         1 E2I       0.422300
     43 HN4A         7.6080    -1.7030     1.5120 hn         1 E2I       0.422300
@<TRIPOS>BOND
     1     1     2 ar  
     2     1     6 ar  
     3     2     3 ar  
     4     2    25 1   
     5     3     4 ar  
     6     3     7 1   
     7     4     5 ar  
     8     4    26 1   
     9     5     6 ar  
    10     6    11 1   
    11     7     8 1   
    12     7    27 1   
    13     7    28 1   
    14     8     9 1   
    15     8    29 1   
    16     8    30 1   
    17     9    10 1   
    18     9    31 1   
    19     9    32 1   
    20    10    33 1   
    21    10    34 1   
    22    10    35 1   
    23    11    12 1   
    24    12    13 1   
    25    12    36 1   
    26    12    37 1   
    27    13    14 2   
    28    13    15 1   
    29    15    16 ar  
    30    15    20 ar  
    31    16    17 ar  
    32    16    38 1   
    33    17    18 ar  
    34    17    39 1   
    35    18    19 ar  
    36    18    21 1   
    37    19    20 ar  
    38    19    40 1   
    39    20    41 1   
    40    21    22 2   
    41    21    23 2   
    42    21    24 1   
    43    24    42 1   
    44    24    43 1   
@<TRIPOS>SUBSTRUCTURE
     1 E2I         1 TEMP              0 ****  ****    0 ROOT
