@<TRIPOS>MOLECULE
E2I
   43    44     1     0     0
SMALL
No Charge or Current Charge


@<TRIPOS>ATOM
      1 N1          -2.9030     0.1190    -0.4500 nb         1 E2I      -0.177500
      2 C2          -3.9920    -0.6390    -0.6910 ca         1 E2I       0.121400
      3 C3          -5.2890    -0.0940    -0.6720 ca         1 E2I      -0.189300
      4 C4          -5.3990     1.2800    -0.3870 ca         1 E2I       0.121400
      5 N5          -4.3140     2.0410    -0.1450 nb         1 E2I      -0.177500
      6 C6          -3.1110     1.4290    -0.1870 ca         1 E2I       0.206300
      7 C13         -6.5160    -0.9530    -0.9390 c3         1 E2I      -0.021100
      8 C15         -7.0360    -1.6300     0.3460 c3         1 E2I      -0.075400
      9 C17         -8.2830    -2.5090     0.1080 c3         1 E2I      -0.075400
     10 C19         -8.8000    -3.1840     1.3930 c3         1 E2I      -0.089100
     11 S21         -1.6840     2.4620     0.1380 ss         1 E2I      -0.225300
     12 C23         -0.2300     1.3040     0.0070 c3         1 E2I      -0.089400
     13 C25          1.1360     1.9740     0.2520 c          1 E2I       0.588700
     14 O27          1.2120     3.1710     0.5100 o          1 E2I      -0.493100
     15 C29          2.3900     1.1230     0.1670 ca         1 E2I      -0.120600
     16 C31          3.6570     1.7130     0.3860 ca         1 E2I      -0.086000
     17 C32          4.8340     0.9480     0.3140 ca         1 E2I      -0.024500
     18 C33          4.7670    -0.4270     0.0170 ca         1 E2I      -0.241500
     19 C34          3.5120    -1.0280    -0.2010 ca         1 E2I      -0.024500
     20 C35          2.3350    -0.2620    -0.1280 ca         1 E2I      -0.086000
     21 S42          6.2710    -1.4090    -0.0760 sy         1 E2I       1.127600
     22 O44          6.0490    -2.6370    -0.8370 o          1 E2I      -0.540500
     23 O46          7.4390    -0.5580    -0.2930 o          1 E2I      -0.540500
     24 N48          6.4650    -1.9390     1.4540 n8         1 E2I      -1.009100
     25 H2          -3.8190    -1.6930    -0.9010 h4         1 E2I       0.025600
     26 H4          -6.3670     1.7780    -0.3500 h4         1 E2I       0.025600
     27 H13         -7.3160    -0.3410    -1.3740 hc         1 E2I       0.051200
     28 H13A        -6.2790    -1.7240    -1.6830 hc         1 E2I       0.051200
     29 H15         -6.2360    -2.2460     0.7750 hc         1 E2I       0.043200
     30 H15A        -7.2750    -0.8560     1.0860 hc         1 E2I       0.043200
     31 H17         -9.0850    -1.8940    -0.3190 hc         1 E2I       0.038200
     32 H17A        -8.0460    -3.2840    -0.6310 hc         1 E2I       0.038200
     33 H19         -8.0310    -3.8340     1.8260 hc         1 E2I       0.033700
     34 H19A        -9.0790    -2.4320     2.1410 hc         1 E2I       0.033700
     35 H19B        -9.6830    -3.7950     1.1750 hc         1 E2I       0.033700
     36 H23         -0.3430     0.4990     0.7420 h1         1 E2I       0.099700
     37 H23A        -0.2100     0.8640    -0.9970 h1         1 E2I       0.099700
     38 H31          3.7380     2.7740     0.6170 ha         1 E2I       0.133000
     39 H32          5.7950     1.4290     0.4900 ha         1 E2I       0.141500
     40 H34          3.4420    -2.0920    -0.4270 ha         1 E2I       0.141500
     41 H35          1.3870    -0.7640    -0.3040 ha         1 E2I       0.133000
     42 HN48         6.5700    -2.9380     1.2890 hn         1 E2I       0.477500
     43 HN4A         7.4260    -1.6510     1.6260 hn         1 E2I       0.477500
@<TRIPOS>BOND
     1     1     2 ar  
     2     1     6 ar  
     3     2     3 ar  
     4     2    25 1   
     5     3     4 ar  
     6     3     7 1   
     7     4     5 ar  
     8     4    26 1   
     9     5     6 ar  
    10     6    11 1   
    11     7     8 1   
    12     7    27 1   
    13     7    28 1   
    14     8     9 1   
    15     8    29 1   
    16     8    30 1   
    17     9    10 1   
    18     9    31 1   
    19     9    32 1   
    20    10    33 1   
    21    10    34 1   
    22    10    35 1   
    23    11    12 1   
    24    12    13 1   
    25    12    36 1   
    26    12    37 1   
    27    13    14 2   
    28    13    15 1   
    29    15    16 ar  
    30    15    20 ar  
    31    16    17 ar  
    32    16    38 1   
    33    17    18 ar  
    34    17    39 1   
    35    18    19 ar  
    36    18    21 1   
    37    19    20 ar  
    38    19    40 1   
    39    20    41 1   
    40    21    22 2   
    41    21    23 2   
    42    21    24 1   
    43    24    42 1   
    44    24    43 1   
@<TRIPOS>SUBSTRUCTURE
     1 E2I         1 TEMP              0 ****  ****    0 ROOT
