@<TRIPOS>MOLECULE
E2J
   59    63     1     0     0
SMALL
No Charge or Current Charge


@<TRIPOS>ATOM
      1 C10          6.9600    -0.4500     0.1280 cc         1 E2J      -0.019000
      2 N11          6.6110    -1.1220    -0.9600 nd         1 E2J      -0.338600
      3 C12          3.0030     0.2200    -1.1500 c3         1 E2J      -0.011200
      4 C13          1.9800    -0.6550    -0.3860 c3         1 E2J       0.169800
      5 C15         -0.2730    -1.6370    -0.2750 c6         1 E2J       0.169300
      6 C26         -4.1860     1.3080    -0.2070 ca         1 E2J      -0.061800
      7 C28         -4.1710     3.5500     0.7590 ca         1 E2J      -0.154000
      8 C31         -5.3610     1.6290    -0.9140 ca         1 E2J      -0.074500
      9 C33         -1.4450     0.7910    -1.4130 c6         1 E2J      -0.048200
     10 C34         -0.0370     0.7540    -0.7760 c6         1 E2J       0.169300
     11 C19         -4.4950    -1.1420     0.1710 ca         1 E2J      -0.061800
     12 C18         -3.5990    -0.0570    -0.3210 ce         1 E2J      -0.026400
     13 C21         -5.8200    -2.1320     1.9670 ca         1 E2J      -0.154000
     14 C01          4.8960    -1.6930    -2.6390 c3         1 E2J      -0.054900
     15 C02          5.2970    -0.9200    -1.4070 cd         1 E2J       0.217400
     16 C03          4.4400    -0.0510    -0.7240 cc         1 E2J      -0.284400
     17 C04          4.8630     0.6780     0.4980 c          1 E2J       0.534000
     18 O05          4.1470     1.4390     1.1410 o          1 E2J      -0.536000
     19 N06          6.1810     0.4050     0.8520 n          1 E2J      -0.015800
     20 C07          6.8670     0.9270     1.9350 cc         1 E2J      -0.089000
     21 C08          8.1700     0.4930     2.0650 cd         1 E2J      -0.271000
     22 S09          8.5860    -0.6430     0.7600 ss         1 E2J       0.217000
     23 N14          0.5890    -0.5950    -0.9020 n3         1 E2J      -0.724600
     24 C16         -1.6950    -1.6690    -0.8860 c6         1 E2J      -0.048200
     25 C17         -2.3550    -0.2900    -0.8280 c2         1 E2J      -0.073400
     26 C20         -4.9570    -1.1230     1.5020 ca         1 E2J      -0.074500
     27 C22         -6.2270    -3.1570     1.0990 ca         1 E2J       0.171000
     28 C23         -5.7830    -3.1770    -0.2320 ca         1 E2J      -0.154000
     29 C24         -4.9210    -2.1680    -0.6970 ca         1 E2J      -0.074500
     30 F25         -7.0560    -4.1250     1.5450 f          1 E2J      -0.180000
     31 C27         -3.5990     2.2710     0.6390 ca         1 E2J      -0.074500
     32 C29         -5.3340     3.8650     0.0400 ca         1 E2J       0.171000
     33 C30         -5.9330     2.9080    -0.7940 ca         1 E2J      -0.154000
     34 F32         -5.8840     5.0930     0.1560 f          1 E2J      -0.180000
     35 H1           2.8780     0.0420    -2.2240 hc         1 E2J       0.060200
     36 H2           2.7610     1.2790    -1.0070 hc         1 E2J       0.060200
     37 H3           2.3360    -1.6930    -0.4460 h1         1 E2J       0.035200
     38 H4           1.9990    -0.3750     0.6760 h1         1 E2J       0.035200
     39 H5           0.1810    -2.6310    -0.3980 h1         1 E2J       0.035200
     40 H6          -0.3580    -1.4540     0.8070 h1         1 E2J       0.035200
     41 H7          -3.7160     4.2940     1.4080 ha         1 E2J       0.132500
     42 H8          -5.8270     0.8860    -1.5580 ha         1 E2J       0.120750
     43 H9          -1.8660     1.7970    -1.3070 hc         1 E2J       0.059450
     44 H10         -1.3500     0.6250    -2.4950 hc         1 E2J       0.059450
     45 H11          0.5760     1.5190    -1.2720 h1         1 E2J       0.035200
     46 H12         -0.1170     1.0390     0.2840 h1         1 E2J       0.035200
     47 H13         -6.1720    -2.1210     2.9950 ha         1 E2J       0.132500
     48 H14          4.7340    -1.0190    -3.4880 hc         1 E2J       0.060033
     49 H15          5.6670    -2.4150    -2.9350 hc         1 E2J       0.060033
     50 H16          3.9710    -2.2540    -2.4680 hc         1 E2J       0.060033
     51 H18          6.3070     1.6170     2.5580 h4         1 E2J       0.187000
     52 H19          8.9010     0.7570     2.8210 h4         1 E2J       0.171000
     53 H21         -1.6360    -2.0020    -1.9310 hc         1 E2J       0.059450
     54 H22         -2.2790    -2.4270    -0.3510 hc         1 E2J       0.059450
     55 H23         -4.6440    -0.3280     2.1750 ha         1 E2J       0.120750
     56 H24         -6.1080    -3.9700    -0.9000 ha         1 E2J       0.132500
     57 H25         -4.5850    -2.1790    -1.7320 ha         1 E2J       0.120750
     58 H26         -2.7020     2.0240     1.2030 ha         1 E2J       0.120750
     59 H27         -6.8370     3.1580    -1.3430 ha         1 E2J       0.132500
@<TRIPOS>BOND
     1     1     2 2   
     2     1    19 1   
     3     1    22 1   
     4     2    15 1   
     5     3     4 1   
     6     3    16 1   
     7     3    35 1   
     8     3    36 1   
     9     4    23 1   
    10     4    37 1   
    11     4    38 1   
    12     5    23 1   
    13     5    24 1   
    14     5    39 1   
    15     5    40 1   
    16     6     8 ar  
    17     6    12 1   
    18     6    31 ar  
    19     7    31 ar  
    20     7    32 ar  
    21     7    41 1   
    22     8    33 ar  
    23     8    42 1   
    24     9    10 1   
    25     9    25 1   
    26     9    43 1   
    27     9    44 1   
    28    10    23 1   
    29    10    45 1   
    30    10    46 1   
    31    11    12 1   
    32    11    26 ar  
    33    11    29 ar  
    34    12    25 2   
    35    13    26 ar  
    36    13    27 ar  
    37    13    47 1   
    38    14    15 1   
    39    14    48 1   
    40    14    49 1   
    41    14    50 1   
    42    15    16 2   
    43    16    17 1   
    44    17    18 2   
    45    17    19 1   
    46    19    20 1   
    47    20    21 2   
    48    20    51 1   
    49    21    22 1   
    50    21    52 1   
    51    24    25 1   
    52    24    53 1   
    53    24    54 1   
    54    26    55 1   
    55    27    28 ar  
    56    27    30 1   
    57    28    29 ar  
    58    28    56 1   
    59    29    57 1   
    60    31    58 1   
    61    32    33 ar  
    62    32    34 1   
    63    33    59 1   
@<TRIPOS>SUBSTRUCTURE
     1 E2J         1 TEMP              0 ****  ****    0 ROOT
