@<TRIPOS>MOLECULE
E2J
   59    63     1     0     0
SMALL
abcg2


@<TRIPOS>ATOM
      1 C10          6.8180    -0.4540     0.1700 cc         1 E2J      -0.019000
      2 N11          6.4190    -1.2180    -0.7920 nd         1 E2J      -0.338600
      3 C12          2.9140     0.1520    -1.2270 c3         1 E2J      -0.011200
      4 C13          1.9060    -0.6290    -0.3830 c3         1 E2J       0.169800
      5 C15         -0.2820    -1.5990    -0.3090 c6         1 E2J       0.169300
      6 C26         -4.0520     1.2900    -0.1400 ca         1 E2J      -0.061800
      7 C28         -3.8750     3.4760     0.8950 ca         1 E2J      -0.154000
      8 C31         -5.2740     1.6760    -0.6900 ca         1 E2J      -0.074500
      9 C33         -1.4220     0.7470    -1.4710 c6         1 E2J      -0.048200
     10 C34         -0.0490     0.7230    -0.8060 c6         1 E2J       0.169300
     11 C19         -4.4380    -1.1660     0.0750 ca         1 E2J      -0.061800
     12 C18         -3.5240    -0.0810    -0.3600 ce         1 E2J      -0.026400
     13 C21         -5.8490    -2.1480     1.7870 ca         1 E2J      -0.154000
     14 C01          4.7340    -1.9110    -2.3680 c3         1 E2J      -0.054900
     15 C02          5.1560    -1.0150    -1.2450 cd         1 E2J       0.217400
     16 C03          4.3160    -0.0510    -0.7330 cc         1 E2J      -0.284400
     17 C04          4.7560     0.7890     0.3400 c          1 E2J       0.534000
     18 O05          4.1240     1.6730     0.8980 o          1 E2J      -0.536000
     19 N06          6.0750     0.5220     0.7560 n          1 E2J      -0.015800
     20 C07          6.7270     1.2040     1.7750 cc         1 E2J      -0.089000
     21 C08          7.9710     0.7600     1.9770 cd         1 E2J      -0.271000
     22 S09          8.3860    -0.5360     0.9010 ss         1 E2J       0.217000
     23 N14          0.5600    -0.5890    -0.9230 n3         1 E2J      -0.724600
     24 C16         -1.6620    -1.6640    -0.9650 c6         1 E2J      -0.048200
     25 C17         -2.3170    -0.3150    -0.9020 c2         1 E2J      -0.073400
     26 C20         -4.9780    -1.1570     1.3620 ca         1 E2J      -0.074500
     27 C22         -6.1930    -3.1500     0.8990 ca         1 E2J       0.171000
     28 C23         -5.6970    -3.1880    -0.3890 ca         1 E2J      -0.154000
     29 C24         -4.8220    -2.1890    -0.7920 ca         1 E2J      -0.074500
     30 F25         -7.0440    -4.1090     1.2990 f          1 E2J      -0.180000
     31 C27         -3.3710     2.2040     0.6630 ca         1 E2J      -0.074500
     32 C29         -5.0790     3.8240     0.3160 ca         1 E2J       0.171000
     33 C30         -5.7930     2.9440    -0.4750 ca         1 E2J      -0.154000
     34 F32         -5.5770     5.0520     0.5370 f          1 E2J      -0.180000
     35 H1           2.8220    -0.1630    -2.2680 hc         1 E2J       0.060200
     36 H2           2.6860     1.2190    -1.2090 hc         1 E2J       0.060200
     37 H3           2.2200    -1.6760    -0.3540 h1         1 E2J       0.035200
     38 H4           1.9420    -0.2680     0.6580 h1         1 E2J       0.035200
     39 H5           0.2030    -2.5720    -0.4110 h1         1 E2J       0.035200
     40 H6          -0.4130    -1.4190     0.7730 h1         1 E2J       0.035200
     41 H7          -3.3420     4.1780     1.5230 ha         1 E2J       0.132500
     42 H8          -5.8300     0.9800    -1.3060 ha         1 E2J       0.120750
     43 H9          -1.8460     1.7460    -1.3940 hc         1 E2J       0.059450
     44 H10         -1.2860     0.5390    -2.5390 hc         1 E2J       0.059450
     45 H11          0.5850     1.4660    -1.2910 h1         1 E2J       0.035200
     46 H12         -0.1500     1.0290     0.2510 h1         1 E2J       0.035200
     47 H13         -6.2550    -2.1380     2.7900 ha         1 E2J       0.132500
     48 H14          4.6470    -1.3490    -3.3000 hc         1 E2J       0.060033
     49 H15          5.4690    -2.6990    -2.5160 hc         1 E2J       0.060033
     50 H16          3.7660    -2.3730    -2.1820 hc         1 E2J       0.060033
     51 H18          6.2190     1.9950     2.3000 h4         1 E2J       0.187000
     52 H19          8.6780     1.1230     2.7040 h4         1 E2J       0.171000
     53 H21         -1.5410    -1.9740    -2.0090 hc         1 E2J       0.059450
     54 H22         -2.2480    -2.4330    -0.4630 hc         1 E2J       0.059450
     55 H23         -4.7110    -0.3650     2.0510 ha         1 E2J       0.120750
     56 H24         -5.9950    -3.9730    -1.0710 ha         1 E2J       0.132500
     57 H25         -4.4430    -2.2030    -1.8060 ha         1 E2J       0.120750
     58 H26         -2.4340     1.9170     1.1250 ha         1 E2J       0.120750
     59 H27         -6.7370     3.2400    -0.9140 ha         1 E2J       0.132500
@<TRIPOS>BOND
     1     1     2 2   
     2     1    19 1   
     3     1    22 1   
     4     2    15 1   
     5     3     4 1   
     6     3    16 1   
     7     3    35 1   
     8     3    36 1   
     9     4    23 1   
    10     4    37 1   
    11     4    38 1   
    12     5    23 1   
    13     5    24 1   
    14     5    39 1   
    15     5    40 1   
    16     6     8 ar  
    17     6    12 1   
    18     6    31 ar  
    19     7    31 ar  
    20     7    32 ar  
    21     7    41 1   
    22     8    33 ar  
    23     8    42 1   
    24     9    10 1   
    25     9    25 1   
    26     9    43 1   
    27     9    44 1   
    28    10    23 1   
    29    10    45 1   
    30    10    46 1   
    31    11    12 1   
    32    11    26 ar  
    33    11    29 ar  
    34    12    25 2   
    35    13    26 ar  
    36    13    27 ar  
    37    13    47 1   
    38    14    15 1   
    39    14    48 1   
    40    14    49 1   
    41    14    50 1   
    42    15    16 2   
    43    16    17 1   
    44    17    18 2   
    45    17    19 1   
    46    19    20 1   
    47    20    21 2   
    48    20    51 1   
    49    21    22 1   
    50    21    52 1   
    51    24    25 1   
    52    24    53 1   
    53    24    54 1   
    54    26    55 1   
    55    27    28 ar  
    56    27    30 1   
    57    28    29 ar  
    58    28    56 1   
    59    29    57 1   
    60    31    58 1   
    61    32    33 ar  
    62    32    34 1   
    63    33    59 1   
@<TRIPOS>SUBSTRUCTURE
     1 E2J         1 TEMP              0 ****  ****    0 ROOT
