@<TRIPOS>MOLECULE
E2K
   45    47     1     0     0
SMALL
No Charge or Current Charge


@<TRIPOS>ATOM
      1 C4           2.5290     1.5090    -0.3400 ca         1 E2K       0.137500
      2 C5           1.7690     2.6490    -0.4940 ca         1 E2K      -0.079600
      3 C6           2.4310     3.8450    -0.8450 ca         1 E2K       0.440900
      4 C8           0.3950     1.1180     0.0370 cc         1 E2K       0.444700
      5 N1           3.7620     3.8790    -1.0180 nb         1 E2K      -0.309000
      6 N3           3.8670     1.5120    -0.5100 nb         1 E2K      -0.214000
      7 C2           4.4160     2.7050    -0.8410 ca         1 E2K       0.166900
      8 CAH          2.0150    -0.8600     0.3640 c5         1 E2K       0.320300
      9 CAJ          1.2950    -3.0790     0.0080 c5         1 E2K       0.115300
     10 CAK         -0.2220    -3.4300    -0.0580 c3         1 E2K       0.143800
     11 CAO          1.8450    -2.9390     1.4730 c5         1 E2K       0.097300
     12 CAQ          1.5510    -1.4380     1.7420 c5         1 E2K       0.128300
     13 CAU         -2.3910     1.5160     0.1640 c3         1 E2K       0.064600
     14 CAV         -3.7900     0.9070     0.3870 c3         1 E2K      -0.052400
     15 CAW         -4.9300     1.9490     0.2730 c3         1 E2K      -0.206400
     16 CAX         -6.2910     1.2720     0.5080 c          1 E2K       0.719000
     17 N6           1.7760     5.0240    -1.0200 nv         1 E2K      -1.069900
     18 N7           0.4070     2.4230    -0.2670 nd         1 E2K      -0.572100
     19 N9           1.6540     0.5130    -0.0040 na         1 E2K      -0.278300
     20 NAL         -0.6860    -3.5330    -1.4510 n2         1 E2K      -0.379200
     21 NAM         -0.5360    -4.6330    -2.0070 n1         1 E2K       0.224000
     22 NAN         -0.2760    -5.5880    -2.5670 n1         1 E2K      -0.099000
     23 OAI          1.5310    -1.7910    -0.6290 os         1 E2K      -0.423000
     24 OAP          3.2590    -3.2000     1.5670 oh         1 E2K      -0.690000
     25 OAR          2.3120    -0.9740     2.8660 oh         1 E2K      -0.673000
     26 OAY         -6.7080     1.1990     1.6540 o          1 E2K      -0.737000
     27 OAZ         -6.8690     0.7920    -0.4550 o          1 E2K      -0.737000
     28 SAT         -1.0900     0.2140     0.3160 ss         1 E2K      -0.243200
     29 H1           5.4950     2.7230    -0.9800 h5         1 E2K       0.037100
     30 H2           3.1130    -0.8860     0.3440 h2         1 E2K       0.114700
     31 H3           1.8470    -3.8510    -0.5450 h1         1 E2K       0.055700
     32 H4          -0.3850    -4.3740     0.4790 h1         1 E2K       0.070700
     33 H5          -0.7940    -2.6600     0.4730 h1         1 E2K       0.070700
     34 H6           1.2930    -3.5840     2.1710 h1         1 E2K       0.050700
     35 H7           0.4800    -1.2750     1.9130 h1         1 E2K       0.070700
     36 H8          -2.3360     1.9630    -0.8370 h1         1 E2K       0.066200
     37 H9          -2.2030     2.3000     0.9090 h1         1 E2K       0.066200
     38 H10         -3.9530     0.1080    -0.3470 hc         1 E2K       0.053200
     39 H11         -3.8220     0.4410     1.3800 hc         1 E2K       0.053200
     40 H12         -4.7330     2.6960     1.0520 hc         1 E2K       0.019700
     41 H13         -4.8700     2.3490    -0.7470 hc         1 E2K       0.019700
     42 H14          0.8160     5.0640    -0.6850 hn         1 E2K       0.503500
     43 H15          2.3130     5.8860    -0.9700 hn         1 E2K       0.503500
     44 H17          3.3970    -4.1650     1.4100 ho         1 E2K       0.499000
     45 H18          3.0870    -1.5870     2.8940 ho         1 E2K       0.507000
@<TRIPOS>BOND
     1     1     2 ar  
     2     1     6 ar  
     3     1    19 1   
     4     2     3 ar  
     5     2    18 1   
     6     3     5 ar  
     7     3    17 1   
     8     4    18 2   
     9     4    19 1   
    10     4    28 1   
    11     5     7 ar  
    12     6     7 ar  
    13     7    29 1   
    14     8    12 1   
    15     8    19 1   
    16     8    23 1   
    17     8    30 1   
    18     9    10 1   
    19     9    11 1   
    20     9    23 1   
    21     9    31 1   
    22    10    20 1   
    23    10    32 1   
    24    10    33 1   
    25    11    12 1   
    26    11    24 1   
    27    11    34 1   
    28    12    25 1   
    29    12    35 1   
    30    13    14 1   
    31    13    28 1   
    32    13    36 1   
    33    13    37 1   
    34    14    15 1   
    35    14    38 1   
    36    14    39 1   
    37    15    16 1   
    38    15    40 1   
    39    15    41 1   
    40    16    26 1   
    41    16    27 1   
    42    17    42 1   
    43    17    43 1   
    44    20    21 1   
    45    21    22 3   
    46    24    44 1   
    47    25    45 1   
@<TRIPOS>SUBSTRUCTURE
     1 E2K         1 TEMP              0 ****  ****    0 ROOT
