@<TRIPOS>MOLECULE
E2K
   45    47     1     0     0
SMALL
abcg2


@<TRIPOS>ATOM
      1 C4           2.5320     1.5160    -0.3290 ca         1 E2K       0.137500
      2 C5           1.7370     2.6310    -0.5160 ca         1 E2K      -0.079600
      3 C6           2.4060     3.8440    -0.7490 ca         1 E2K       0.440900
      4 C8           0.3950     1.0240    -0.2030 cc         1 E2K       0.444700
      5 N1           3.7450     3.8250    -0.7770 nb         1 E2K      -0.309000
      6 N3           3.8590     1.4790    -0.3540 nb         1 E2K      -0.214000
      7 C2           4.3790     2.6730    -0.5860 ca         1 E2K       0.166900
      8 CAH          2.0590    -0.8690     0.1870 c5         1 E2K       0.320300
      9 CAJ          1.1920    -3.0100     0.0820 c5         1 E2K       0.115300
     10 CAK         -0.2770    -3.3880     0.2000 c3         1 E2K       0.143800
     11 CAO          1.8580    -2.8330     1.4580 c5         1 E2K       0.097300
     12 CAQ          1.7960    -1.3120     1.6230 c5         1 E2K       0.128300
     13 CAU         -2.3060     1.3470     0.0460 c3         1 E2K       0.064600
     14 CAV         -3.6600     0.6770     0.2340 c3         1 E2K      -0.052400
     15 CAW         -4.7710     1.7150     0.2710 c3         1 E2K      -0.206400
     16 CAX         -6.1940     1.1570     0.4650 c          1 E2K       0.719000
     17 N6           1.7630     4.9960    -0.9520 nv         1 E2K      -1.069900
     18 N7           0.4070     2.3040    -0.4380 nd         1 E2K      -0.572100
     19 N9           1.6590     0.4780    -0.1210 na         1 E2K      -0.278300
     20 NAL         -0.9600    -3.3970    -1.0940 n2         1 E2K      -0.379200
     21 NAM         -0.7740    -4.3730    -1.7970 n1         1 E2K       0.224000
     22 NAN         -0.6740    -5.2280    -2.5220 n1         1 E2K      -0.099000
     23 OAI          1.3380    -1.7660    -0.6090 os         1 E2K      -0.423000
     24 OAP          3.2080    -3.2120     1.4550 oh         1 E2K      -0.690000
     25 OAR          2.7350    -0.7390     2.4730 oh         1 E2K      -0.673000
     26 OAY         -6.3230    -0.0740     0.6020 o          1 E2K      -0.737000
     27 OAZ         -7.1100     2.0060     0.4700 o          1 E2K      -0.737000
     28 SAT         -1.0350     0.0490    -0.0430 ss         1 E2K      -0.243200
     29 H1           5.4620     2.7240    -0.6230 h5         1 E2K       0.037100
     30 H2           3.1350    -0.9100    -0.0180 h2         1 E2K       0.114700
     31 H3           1.7130    -3.7870    -0.4890 h1         1 E2K       0.055700
     32 H4          -0.3450    -4.3640     0.6890 h1         1 E2K       0.070700
     33 H5          -0.8180    -2.6730     0.8170 h1         1 E2K       0.070700
     34 H6           1.2940    -3.3560     2.2400 h1         1 E2K       0.050700
     35 H7           0.7690    -1.0390     1.9040 h1         1 E2K       0.070700
     36 H8          -2.2770     1.9260    -0.8770 h1         1 E2K       0.066200
     37 H9          -2.0770     2.0160     0.8760 h1         1 E2K       0.066200
     38 H10         -3.8380    -0.0300    -0.5800 hc         1 E2K       0.053200
     39 H11         -3.6600     0.0960     1.1590 hc         1 E2K       0.053200
     40 H12         -4.5770     2.4350     1.0740 hc         1 E2K       0.019700
     41 H13         -4.7550     2.3060    -0.6520 hc         1 E2K       0.019700
     42 H14          0.7630     5.0500    -0.8810 hn         1 E2K       0.503500
     43 H15          2.2790     5.8520    -1.0640 hn         1 E2K       0.503500
     44 H17          3.2560    -4.1650     1.3320 ho         1 E2K       0.499000
     45 H18          2.4650    -0.8930     3.3830 ho         1 E2K       0.507000
@<TRIPOS>BOND
     1     1     2 ar  
     2     1     6 ar  
     3     1    19 1   
     4     2     3 ar  
     5     2    18 1   
     6     3     5 ar  
     7     3    17 1   
     8     4    18 2   
     9     4    19 1   
    10     4    28 1   
    11     5     7 ar  
    12     6     7 ar  
    13     7    29 1   
    14     8    12 1   
    15     8    19 1   
    16     8    23 1   
    17     8    30 1   
    18     9    10 1   
    19     9    11 1   
    20     9    23 1   
    21     9    31 1   
    22    10    20 1   
    23    10    32 1   
    24    10    33 1   
    25    11    12 1   
    26    11    24 1   
    27    11    34 1   
    28    12    25 1   
    29    12    35 1   
    30    13    14 1   
    31    13    28 1   
    32    13    36 1   
    33    13    37 1   
    34    14    15 1   
    35    14    38 1   
    36    14    39 1   
    37    15    16 1   
    38    15    40 1   
    39    15    41 1   
    40    16    26 1   
    41    16    27 1   
    42    17    42 1   
    43    17    43 1   
    44    20    21 1   
    45    21    22 3   
    46    24    44 1   
    47    25    45 1   
@<TRIPOS>SUBSTRUCTURE
     1 E2K         1 TEMP              0 ****  ****    0 ROOT
