@<TRIPOS>MOLECULE
E2L
   47    50     1     0     0
SMALL
bcc


@<TRIPOS>ATOM
      1 C4          32.6140   119.9510    -0.2810 ca         1 E2L      -0.162000
      2 C5          33.2110   118.9750     0.5120 ca         1 E2L      -0.117000
      3 C6          33.1380   119.0490     1.8900 ca         1 E2L      -0.134000
      4 C7          32.4620   120.1120     2.4810 ca         1 E2L      -0.183300
      5 C8          31.8890   121.0870     1.6920 ca         1 E2L       0.295000
      6 C10         30.4060   122.8890     1.5980 ca         1 E2L       0.296000
      7 C13         28.6710   124.5100     0.2220 ca         1 E2L       0.039400
      8 C15         29.5200   123.6890     2.2840 ca         1 E2L      -0.179300
      9 C17         30.4680   121.1990    -2.6190 c3         1 E2L      -0.106400
     10 C20         29.0060   123.0360    -4.6820 c6         1 E2L      -0.073400
     11 C21         30.4380   122.5220    -4.8440 c6         1 E2L      -0.065700
     12 C22         30.7550   122.3760    -6.3300 c6         1 E2L       0.161800
     13 C24         29.1610   124.0630    -6.9590 c6         1 E2L       0.158800
     14 C18         30.6760   121.1910    -4.1310 c3         1 E2L      -0.070400
     15 N2          31.3540   122.0520    -0.4440 na         1 E2L      -0.161100
     16 N23         30.5450   123.6300    -7.0300 n7         1 E2L      -0.806200
     17 C11         30.4370   122.8690     0.1960 ca         1 E2L      -0.029600
     18 C3          31.9480   121.0290     0.2940 ca         1 E2L      -0.044600
     19 C12         29.5450   123.6920    -0.4840 ca         1 E2L      -0.168000
     20 C19         28.7740   124.2970    -5.5080 c6         1 E2L      -0.075400
     21 CL1         27.5900   125.5250    -0.6780 cl         1 E2L      -0.112400
     22 C14         28.6400   124.5230     1.6000 ca         1 E2L      -0.130000
     23 O9          31.2860   122.1400     2.3210 os         1 E2L      -0.401800
     24 H1          32.6790   119.8550    -1.3560 ha         1 E2L       0.136000
     25 H2          33.7260   118.1540     0.0330 ha         1 E2L       0.134000
     26 H3          33.5960   118.2900     2.5100 ha         1 E2L       0.138000
     27 H4          32.3910   120.1970     3.5580 ha         1 E2L       0.149000
     28 H5          29.5250   123.6780     3.3670 ha         1 E2L       0.152000
     29 H6          29.4510   121.5130    -2.3720 hc         1 E2L       0.051700
     30 H7          30.5580   120.1740    -2.2510 hc         1 E2L       0.051700
     31 H9          28.3080   122.2530    -5.0030 hc         1 E2L       0.038200
     32 H10         31.1210   123.2810    -4.4430 hc         1 E2L       0.059700
     33 H11         30.1360   121.5570    -6.7380 h1         1 E2L       0.027200
     34 H12         31.7980   122.0740    -6.4560 h1         1 E2L       0.027200
     35 H13         29.0480   124.9830    -7.5370 h1         1 E2L       0.028700
     36 H14         28.4670   123.3250    -7.3960 h1         1 E2L       0.028700
     37 H15         30.0160   120.4350    -4.5670 hc         1 E2L       0.040700
     38 H16         31.6970   120.8530    -4.3410 hc         1 E2L       0.040700
     39 H20         30.8140   123.5200    -7.9990 hn         1 E2L       0.355800
     40 H21         29.5220   123.7100    -1.5630 ha         1 E2L       0.152000
     41 H22         29.3740   125.1170    -5.1030 hc         1 E2L       0.048200
     42 H23         27.7280   124.6050    -5.4460 hc         1 E2L       0.048200
     43 H24         27.9540   125.1580     2.1430 ha         1 E2L       0.153000
     44 C1          31.4790   122.0810    -1.8880 c3         1 E2L       0.046300
     45 H8          28.7760   123.2340    -3.6310 hc         1 E2L       0.038200
     46 H17         32.4960   121.7830    -2.1480 h1         1 E2L       0.060200
     47 H18         31.4000   123.1210    -2.2080 h1         1 E2L       0.060200
@<TRIPOS>BOND
     1     1     2 ar  
     2     1    18 ar  
     3     1    24 1   
     4     2     3 ar  
     5     2    25 1   
     6     3     4 ar  
     7     3    26 1   
     8     4     5 ar  
     9     4    27 1   
    10     5    18 ar  
    11     5    23 1   
    12     6     8 ar  
    13     6    17 ar  
    14     6    23 1   
    15     7    19 ar  
    16     7    21 1   
    17     7    22 ar  
    18     8    22 ar  
    19     8    28 1   
    20     9    14 1   
    21     9    29 1   
    22     9    30 1   
    23     9    44 1   
    24    10    11 1   
    25    10    20 1   
    26    10    31 1   
    27    10    45 1   
    28    11    12 1   
    29    11    14 1   
    30    11    32 1   
    31    12    16 1   
    32    12    33 1   
    33    12    34 1   
    34    13    16 1   
    35    13    20 1   
    36    13    35 1   
    37    13    36 1   
    38    14    37 1   
    39    14    38 1   
    40    15    17 1   
    41    15    18 1   
    42    15    44 1   
    43    16    39 1   
    44    17    19 ar  
    45    19    40 1   
    46    20    41 1   
    47    20    42 1   
    48    22    43 1   
    49    44    46 1   
    50    44    47 1   
@<TRIPOS>SUBSTRUCTURE
     1 E2L         1 TEMP              0 ****  ****    0 ROOT
