@<TRIPOS>MOLECULE
E2L
   47    50     1     0     0
SMALL
No Charge or Current Charge


@<TRIPOS>ATOM
      1 C4          32.4470   119.7920    -0.2220 ca         1 E2L      -0.144000
      2 C5          33.2760   118.9600     0.5500 ca         1 E2L      -0.099000
      3 C6          33.4890   119.2380     1.9100 ca         1 E2L      -0.116000
      4 C7          32.8640   120.3470     2.5010 ca         1 E2L      -0.100000
      5 C8          32.0320   121.1770     1.7320 ca         1 E2L       0.120000
      6 C10         30.4350   122.9460     1.6840 ca         1 E2L       0.121000
      7 C13         28.3890   124.3690     0.4030 ca         1 E2L       0.131000
      8 C15         29.6730   123.8810     2.4050 ca         1 E2L      -0.096000
      9 C17         30.2500   121.0450    -2.7030 c3         1 E2L      -0.106400
     10 C20         29.0170   123.0930    -4.8170 c6         1 E2L      -0.073400
     11 C21         30.4400   122.4720    -4.9270 c6         1 E2L      -0.065700
     12 C22         30.8570   122.3650    -6.4210 c6         1 E2L       0.161800
     13 C24         29.4120   124.2620    -7.0530 c6         1 E2L       0.158800
     14 C18         30.5490   121.0810    -4.2230 c3         1 E2L      -0.070400
     15 N2          30.9940   121.7890    -0.3890 na         1 E2L      -0.089000
     16 N23         30.7700   123.6730    -7.1130 n7         1 E2L      -0.861400
     17 C11         30.1930   122.7160     0.3090 ca         1 E2L      -0.015000
     18 C3          31.8160   120.9200     0.3570 ca         1 E2L      -0.030000
     19 C12         29.1500   123.4370    -0.3210 ca         1 E2L      -0.150000
     20 C19         28.9430   124.4340    -5.5880 c6         1 E2L      -0.075400
     21 Cl1         27.1030   125.2560    -0.4030 cl         1 E2L      -0.204000
     22 C14         28.6490   124.5970     1.7630 ca         1 E2L      -0.112000
     23 O9          31.4110   122.2400     2.3420 os         1 E2L      -0.313000
     24 H1          32.3060   119.5440    -1.2710 ha         1 E2L       0.118000
     25 H2          33.7570   118.0970     0.0930 ha         1 E2L       0.116000
     26 H3          34.1320   118.5930     2.5050 ha         1 E2L       0.120000
     27 H4          33.0170   120.5620     3.5550 ha         1 E2L       0.131000
     28 H5          29.8750   124.0450     3.4610 ha         1 E2L       0.134000
     29 H6          29.2080   121.3290    -2.5230 hc         1 E2L       0.051700
     30 H7          30.3340   120.0060    -2.3650 hc         1 E2L       0.051700
     31 H9          28.2710   122.3940    -5.2210 hc         1 E2L       0.038200
     32 H10         31.1550   123.1410    -4.4310 hc         1 E2L       0.059700
     33 H11         30.2070   121.6390    -6.9340 h1         1 E2L       0.027200
     34 H12         31.8890   121.9900    -6.4900 h1         1 E2L       0.027200
     35 H13         29.4120   125.2390    -7.5580 h1         1 E2L       0.028700
     36 H14         28.7060   123.6090    -7.5890 h1         1 E2L       0.028700
     37 H15         29.8720   120.3730    -4.7160 hc         1 E2L       0.040700
     38 H16         31.5590   120.6800    -4.3760 hc         1 E2L       0.040700
     39 H20         31.0290   123.5430    -8.1000 hn         1 E2L       0.411000
     40 H21         28.9150   123.2890    -1.3690 ha         1 E2L       0.134000
     41 H22         29.5700   125.1840    -5.0870 hc         1 E2L       0.048200
     42 H23         27.9160   124.8220    -5.5690 hc         1 E2L       0.048200
     43 H24         28.0560   125.3200     2.3170 ha         1 E2L       0.135000
     44 C1          31.1970   121.9310    -1.8540 c3         1 E2L       0.075600
     45 H8          28.7500   123.2690    -3.7680 hc         1 E2L       0.038200
     46 H17         32.2380   121.6830    -2.0940 h1         1 E2L       0.060200
     47 H18         31.0620   122.9840    -2.1290 h1         1 E2L       0.060200
@<TRIPOS>BOND
     1     1     2 ar  
     2     1    18 ar  
     3     1    24 1   
     4     2     3 ar  
     5     2    25 1   
     6     3     4 ar  
     7     3    26 1   
     8     4     5 ar  
     9     4    27 1   
    10     5    18 ar  
    11     5    23 1   
    12     6     8 ar  
    13     6    17 ar  
    14     6    23 1   
    15     7    19 ar  
    16     7    21 1   
    17     7    22 ar  
    18     8    22 ar  
    19     8    28 1   
    20     9    14 1   
    21     9    29 1   
    22     9    30 1   
    23     9    44 1   
    24    10    11 1   
    25    10    20 1   
    26    10    31 1   
    27    10    45 1   
    28    11    12 1   
    29    11    14 1   
    30    11    32 1   
    31    12    16 1   
    32    12    33 1   
    33    12    34 1   
    34    13    16 1   
    35    13    20 1   
    36    13    35 1   
    37    13    36 1   
    38    14    37 1   
    39    14    38 1   
    40    15    17 1   
    41    15    18 1   
    42    15    44 1   
    43    16    39 1   
    44    17    19 ar  
    45    19    40 1   
    46    20    41 1   
    47    20    42 1   
    48    22    43 1   
    49    44    46 1   
    50    44    47 1   
@<TRIPOS>SUBSTRUCTURE
     1 E2L         1 TEMP              0 ****  ****    0 ROOT
