@<TRIPOS>MOLECULE
E2M
   70    73     1     0     0
SMALL
bcc


@<TRIPOS>ATOM
      1 O1           2.4520     0.1970    -1.5070 os         1 E2M      -0.311900
      2 C2           0.2060     2.5970     0.0280 ca         1 E2M      -0.130300
      3 C3           0.6410     2.4310    -1.2930 ca         1 E2M       0.075900
      4 C4           2.6810     1.9130    -3.0680 ca         1 E2M      -0.085100
      5 C5           2.8290     0.5550    -2.7360 ca         1 E2M       0.199100
      6 C6           2.2530    -1.1790    -1.2030 c3         1 E2M       0.143400
      7 F6           1.9650     3.2000     1.5180 f          1 E2M      -0.222967
      8 F1           1.3090     4.6650     0.0930 f          1 E2M      -0.222967
      9 F2           0.0700     4.2140     1.7560 f          1 E2M      -0.222967
     10 C17          3.0360     2.3640    -4.3320 ca         1 E2M      -0.054000
     11 C16          3.5480     1.4860    -5.2780 ca         1 E2M      -0.190000
     12 C15          3.6870     0.1460    -4.9520 ca         1 E2M      -0.067000
     13 C14          3.3270    -0.3230    -3.6950 ca         1 E2M      -0.225000
     14 C7           1.4150    -1.2720     0.0630 c6         1 E2M      -0.054700
     15 C12          1.1330    -2.7380     0.4060 c6         1 E2M      -0.073900
     16 C11          2.3520    -3.4720     0.9590 c6         1 E2M      -0.054900
     17 C10          2.9490    -2.7510     2.1660 c6         1 E2M      -0.190700
     18 C13          4.1470    -3.5010     2.7880 c          1 E2M       0.929600
     19 O3           4.9900    -2.8170     3.4040 o          1 E2M      -0.840300
     20 O2           4.1710    -4.7430     2.6590 o          1 E2M      -0.840300
     21 C9           3.2690    -1.3010     1.8090 c6         1 E2M      -0.054900
     22 C8           2.0460    -0.5700     1.2650 c6         1 E2M      -0.073900
     23 C18         -0.1260     1.6700    -2.1670 ca         1 E2M      -0.109000
     24 C19         -1.2560     1.0280    -1.7260 ca         1 E2M      -0.095000
     25 C20         -1.6280     1.0520    -0.3830 ca         1 E2M      -0.041800
     26 C28         -0.8750     1.8340     0.5020 ca         1 E2M      -0.118300
     27 C29         -1.1990     1.7290     1.9790 c3         1 E2M       0.719200
     28 F5          -2.1460     2.5920     2.3600 f          1 E2M      -0.225633
     29 F4          -1.6430     0.5050     2.2860 f          1 E2M      -0.225633
     30 F3          -0.1330     1.9150     2.7610 f          1 E2M      -0.225633
     31 C21         -2.8020     0.2540     0.0090 ce         1 E2M      -0.045200
     32 C22         -2.9700    -1.0010    -0.4060 cf         1 E2M      -0.224200
     33 C23         -4.1970    -1.7600    -0.0510 c          1 E2M       0.679300
     34 O5          -5.2490    -1.1710     0.1730 o          1 E2M      -0.613100
     35 N           -4.0960    -3.1070    -0.0200 n          1 E2M      -0.474800
     36 C27         -5.2610    -3.9380     0.2350 c6         1 E2M       0.059000
     37 C26         -5.0780    -4.7080     1.5310 c6         1 E2M       0.107400
     38 O4          -3.8870    -5.4650     1.5120 os         1 E2M      -0.400600
     39 C25         -2.7600    -4.6470     1.3080 c6         1 E2M       0.107400
     40 C24         -2.8570    -3.8670     0.0030 c6         1 E2M       0.059000
     41 H6           1.7190    -1.6680    -2.0250 h1         1 E2M       0.041700
     42 H6A          3.2220    -1.6790    -1.0970 h1         1 E2M       0.041700
     43 H17          2.9040     3.4100    -4.5760 ha         1 E2M       0.138000
     44 H16          3.8250     1.8470    -6.2590 ha         1 E2M       0.130000
     45 H15          4.0780    -0.5520    -5.6810 ha         1 E2M       0.128000
     46 H14          3.4530    -1.3730    -3.4680 ha         1 E2M       0.147000
     47 H7           0.4600    -0.7850    -0.1620 hc         1 E2M       0.022700
     48 H12          0.3370    -2.7610     1.1590 hc         1 E2M       0.025450
     49 H12A         0.7370    -3.2630    -0.4690 hc         1 E2M       0.025450
     50 H11          2.0690    -4.4890     1.2330 hc         1 E2M       0.044450
     51 H11A         3.1160    -3.5710     0.1800 hc         1 E2M       0.044450
     52 H10          2.1700    -2.7270     2.9450 hc         1 E2M       0.025700
     53 H9           3.6440    -0.7750     2.6870 hc         1 E2M       0.044450
     54 H9A          4.0800    -1.2750     1.0710 hc         1 E2M       0.044450
     55 H8           2.2950     0.4640     1.0160 hc         1 E2M       0.025450
     56 H8A          1.2890    -0.5140     2.0550 hc         1 E2M       0.025450
     57 H18          0.1620     1.5840    -3.2060 ha         1 E2M       0.151000
     58 H19         -1.8600     0.4760    -2.4340 ha         1 E2M       0.141000
     59 H21         -3.5580     0.7150     0.6350 ha         1 E2M       0.160000
     60 H22         -2.2080    -1.4720    -1.0140 ha         1 E2M       0.139000
     61 H27         -6.1540    -3.3210     0.2840 h1         1 E2M       0.063700
     62 H27A        -5.3760    -4.6380    -0.5990 h1         1 E2M       0.063700
     63 H26         -5.0780    -4.0070     2.3780 h1         1 E2M       0.058950
     64 H26A        -5.9060    -5.4050     1.6690 h1         1 E2M       0.058950
     65 H25         -2.6390    -3.9390     2.1400 h1         1 E2M       0.058950
     66 H25A        -1.8830    -5.2950     1.2830 h1         1 E2M       0.058950
     67 H24         -2.8340    -4.5510    -0.8500 h1         1 E2M       0.063700
     68 H24A        -1.9900    -3.2170    -0.0710 h1         1 E2M       0.063700
     69 S            2.1830     3.1040    -1.8660 ss         1 E2M      -0.126800
     70 C1           0.8920     3.6530     0.8670 c3         1 E2M       0.722200
@<TRIPOS>BOND
     1     1     5 1   
     2     1     6 1   
     3     2     3 ar  
     4     2    26 ar  
     5     2    70 1   
     6     3    23 ar  
     7     3    69 1   
     8     4     5 ar  
     9     4    10 ar  
    10     4    69 1   
    11     5    13 ar  
    12     6    14 1   
    13     6    41 1   
    14     6    42 1   
    15     7    70 1   
    16     8    70 1   
    17     9    70 1   
    18    10    11 ar  
    19    10    43 1   
    20    11    12 ar  
    21    11    44 1   
    22    12    13 ar  
    23    12    45 1   
    24    13    46 1   
    25    14    15 1   
    26    14    22 1   
    27    14    47 1   
    28    15    16 1   
    29    15    48 1   
    30    15    49 1   
    31    16    17 1   
    32    16    50 1   
    33    16    51 1   
    34    17    18 1   
    35    17    21 1   
    36    17    52 1   
    37    18    19 1   
    38    18    20 1   
    39    21    22 1   
    40    21    53 1   
    41    21    54 1   
    42    22    55 1   
    43    22    56 1   
    44    23    24 ar  
    45    23    57 1   
    46    24    25 ar  
    47    24    58 1   
    48    25    26 ar  
    49    25    31 1   
    50    26    27 1   
    51    27    28 1   
    52    27    29 1   
    53    27    30 1   
    54    31    32 2   
    55    31    59 1   
    56    32    33 1   
    57    32    60 1   
    58    33    34 2   
    59    33    35 1   
    60    35    36 1   
    61    35    40 1   
    62    36    37 1   
    63    36    61 1   
    64    36    62 1   
    65    37    38 1   
    66    37    63 1   
    67    37    64 1   
    68    38    39 1   
    69    39    40 1   
    70    39    65 1   
    71    39    66 1   
    72    40    67 1   
    73    40    68 1   
@<TRIPOS>SUBSTRUCTURE
     1 E2M         1 TEMP              0 ****  ****    0 ROOT
