@<TRIPOS>MOLECULE
E2M
   70    73     1     0     0
SMALL
No Charge or Current Charge


@<TRIPOS>ATOM
      1 O1           2.5970     0.3730    -1.2300 os         1 E2M      -0.335100
      2 C2           0.0460     2.5640    -0.2000 ca         1 E2M      -0.130300
      3 C3           0.3820     2.3160    -1.5670 ca         1 E2M      -0.051000
      4 C4           2.5030     1.6630    -3.2560 ca         1 E2M      -0.212000
      5 C5           2.8140     0.4570    -2.5900 ca         1 E2M       0.199100
      6 C6           2.5310    -0.8870    -0.5420 c3         1 E2M       0.166600
      7 F6           1.9240     3.3490     1.1030 f          1 E2M      -0.101667
      8 F1           1.0280     4.7920    -0.2470 f          1 E2M      -0.101667
      9 F2           0.0030     4.2760     1.5390 f          1 E2M      -0.101667
     10 C17          2.7270     1.7770    -4.6410 ca         1 E2M      -0.036000
     11 C16          3.2490     0.6930    -5.3630 ca         1 E2M      -0.172000
     12 C15          3.5530    -0.5100    -4.7080 ca         1 E2M      -0.049000
     13 C14          3.3370    -0.6290    -3.3250 ca         1 E2M      -0.207000
     14 C7           2.0850    -0.6400     0.9310 c6         1 E2M      -0.054700
     15 C12          1.7350    -1.9640     1.6660 c6         1 E2M      -0.073900
     16 C11          2.9960    -2.8110     1.9780 c6         1 E2M      -0.054900
     17 C10          4.0350    -1.9970     2.8020 c6         1 E2M      -0.190700
     18 C13          5.2910    -2.8340     3.1490 c          1 E2M       0.719000
     19 O3           5.9880    -3.2480     2.2340 o          1 E2M      -0.735000
     20 O2           5.5310    -3.0460     4.3290 o          1 E2M      -0.735000
     21 C9           4.3960    -0.6670     2.0810 c6         1 E2M      -0.054900
     22 C8           3.1280     0.1670     1.7580 c6         1 E2M      -0.073900
     23 C18         -0.3700     1.4120    -2.3300 ca         1 E2M      -0.091000
     24 C19         -1.4340     0.7190    -1.7610 ca         1 E2M      -0.077000
     25 C20         -1.7200     0.8460    -0.3950 ca         1 E2M      -0.041800
     26 C28         -0.9390     1.7130     0.4300 ca         1 E2M      -0.118300
     27 C29         -1.1340     1.6590     1.9790 c3         1 E2M       0.355300
     28 F5          -2.0590     2.5520     2.3990 f          1 E2M      -0.104333
     29 F4          -1.5360     0.4470     2.4290 f          1 E2M      -0.104333
     30 F3           0.0020     1.8970     2.6720 f          1 E2M      -0.104333
     31 C21         -2.8840     0.0650     0.1170 ce         1 E2M      -0.095200
     32 C22         -3.2130    -1.2270    -0.1820 cf         1 E2M      -0.274200
     33 C23         -4.4050    -1.9350     0.3770 c          1 E2M       0.612300
     34 O5          -5.1670    -1.3400     1.1300 o          1 E2M      -0.613100
     35 N           -4.6570    -3.2860     0.0370 n          1 E2M      -0.407800
     36 C27         -5.9690    -3.9080     0.4210 c6         1 E2M       0.059000
     37 C26         -6.0780    -5.4400     0.2190 c6         1 E2M       0.130600
     38 O4          -5.5090    -5.8250    -1.0430 os         1 E2M      -0.447000
     39 C25         -4.1010    -5.5440    -1.1030 c6         1 E2M       0.130600
     40 C24         -3.8320    -4.0210    -0.9810 c6         1 E2M       0.059000
     41 H6           1.7910    -1.5380    -1.0260 h1         1 E2M       0.041700
     42 H6A          3.5030    -1.3960    -0.5600 h1         1 E2M       0.041700
     43 H17          2.4890     2.7050    -5.1580 ha         1 E2M       0.120000
     44 H16          3.4180     0.7850    -6.4340 ha         1 E2M       0.112000
     45 H15          3.9580    -1.3490    -5.2710 ha         1 E2M       0.110000
     46 H14          3.5890    -1.5670    -2.8400 ha         1 E2M       0.129000
     47 H7           1.1650    -0.0470     0.8640 hc         1 E2M       0.022700
     48 H12          1.2140    -1.7300     2.6050 hc         1 E2M       0.025450
     49 H12A         1.0280    -2.5530     1.0660 hc         1 E2M       0.025450
     50 H11          2.7030    -3.7100     2.5370 hc         1 E2M       0.044450
     51 H11A         3.4490    -3.1670     1.0420 hc         1 E2M       0.044450
     52 H10          3.5590    -1.7320     3.7570 hc         1 E2M       0.025700
     53 H9           5.0700    -0.0750     2.7150 hc         1 E2M       0.044450
     54 H9A          4.9520    -0.8750     1.1570 hc         1 E2M       0.044450
     55 H8           3.4150     1.0820     1.2230 hc         1 E2M       0.025450
     56 H8A          2.6650     0.4990     2.6980 hc         1 E2M       0.025450
     57 H18         -0.1380     1.2530    -3.3800 ha         1 E2M       0.133000
     58 H19         -2.0280     0.0570    -2.3860 ha         1 E2M       0.123000
     59 H21         -3.5250     0.6160     0.8090 ha         1 E2M       0.210000
     60 H22         -2.5650    -1.7690    -0.8620 ha         1 E2M       0.189000
     61 H27         -6.1830    -3.6870     1.4760 h1         1 E2M       0.063700
     62 H27A        -6.7610    -3.4260    -0.1700 h1         1 E2M       0.063700
     63 H26         -5.5480    -5.9630     1.0290 h1         1 E2M       0.058950
     64 H26A        -7.1330    -5.7480     0.2520 h1         1 E2M       0.058950
     65 H25         -3.5940    -6.0770    -0.2850 h1         1 E2M       0.058950
     66 H25A        -3.6940    -5.9210    -2.0520 h1         1 E2M       0.058950
     67 H24         -4.0020    -3.5580    -1.9640 h1         1 E2M       0.063700
     68 H24A        -2.7660    -3.9020    -0.7430 h1         1 E2M       0.063700
     69 S            1.8070     3.0720    -2.3820 ss         1 E2M       0.127000
     70 C1           0.7520     3.7360     0.5520 c3         1 E2M       0.358300
@<TRIPOS>BOND
     1     1     5 1   
     2     1     6 1   
     3     2     3 ar  
     4     2    26 ar  
     5     2    70 1   
     6     3    23 ar  
     7     3    69 1   
     8     4     5 ar  
     9     4    10 ar  
    10     4    69 1   
    11     5    13 ar  
    12     6    14 1   
    13     6    41 1   
    14     6    42 1   
    15     7    70 1   
    16     8    70 1   
    17     9    70 1   
    18    10    11 ar  
    19    10    43 1   
    20    11    12 ar  
    21    11    44 1   
    22    12    13 ar  
    23    12    45 1   
    24    13    46 1   
    25    14    15 1   
    26    14    22 1   
    27    14    47 1   
    28    15    16 1   
    29    15    48 1   
    30    15    49 1   
    31    16    17 1   
    32    16    50 1   
    33    16    51 1   
    34    17    18 1   
    35    17    21 1   
    36    17    52 1   
    37    18    19 1   
    38    18    20 1   
    39    21    22 1   
    40    21    53 1   
    41    21    54 1   
    42    22    55 1   
    43    22    56 1   
    44    23    24 ar  
    45    23    57 1   
    46    24    25 ar  
    47    24    58 1   
    48    25    26 ar  
    49    25    31 1   
    50    26    27 1   
    51    27    28 1   
    52    27    29 1   
    53    27    30 1   
    54    31    32 2   
    55    31    59 1   
    56    32    33 1   
    57    32    60 1   
    58    33    34 2   
    59    33    35 1   
    60    35    36 1   
    61    35    40 1   
    62    36    37 1   
    63    36    61 1   
    64    36    62 1   
    65    37    38 1   
    66    37    63 1   
    67    37    64 1   
    68    38    39 1   
    69    39    40 1   
    70    39    65 1   
    71    39    66 1   
    72    40    67 1   
    73    40    68 1   
@<TRIPOS>SUBSTRUCTURE
     1 E2M         1 TEMP              0 ****  ****    0 ROOT
