@<TRIPOS>MOLECULE
E2N
   32    33     1     0     0
SMALL
bcc


@<TRIPOS>ATOM
      1 C1          -2.0140     2.7760     0.5430 c3         1 E2N       0.063600
      2 C2          -4.4670     0.3240     0.6600 cc         1 E2N       0.587600
      3 C3          -3.5860    -0.3800    -0.1900 cc         1 E2N      -0.360900
      4 C4          -3.8840    -1.7390    -0.7040 c          1 E2N       0.959200
      5 N1          -2.8300     1.6050     0.3380 na         1 E2N       0.080400
      6 C5          -2.5330     0.4990    -0.3630 cd         1 E2N      -0.070600
      7 C6          -1.2790     0.3490    -1.1450 c3         1 E2N       0.199700
      8 C7           1.0570     0.2590    -0.7020 ca         1 E2N       0.163100
      9 C8           1.3820     0.1530    -2.0530 ca         1 E2N      -0.189000
     10 C9           2.7150     0.1130    -2.4350 ca         1 E2N      -0.100000
     11 N2          -4.0100     1.5110     0.9840 nd         1 E2N      -0.599800
     12 C10          3.7350     0.1740    -1.5000 ca         1 E2N      -0.138000
     13 C11          3.4010     0.2790    -0.1550 ca         1 E2N      -0.164300
     14 C12          4.4560     0.3480     0.9050 c3         1 E2N       0.718200
     15 O2          -3.0910    -2.3090    -1.4660 o          1 E2N      -0.823300
     16 C13          2.0750     0.3220     0.2470 ca         1 E2N      -0.128000
     17 O3          -4.9860    -2.2110    -0.2890 o          1 E2N      -0.823300
     18 O4          -0.1990     0.3050    -0.2210 os         1 E2N      -0.311900
     19 F1           4.3670    -0.6820     1.7600 f          1 E2N      -0.239967
     20 F2           5.6940     0.3330     0.4060 f          1 E2N      -0.239967
     21 F3           4.3440     1.4630     1.6430 f          1 E2N      -0.239967
     22 H1          -1.4450     2.7060     1.4700 h1         1 E2N       0.037367
     23 H2          -1.3200     2.8990    -0.2840 h1         1 E2N       0.037367
     24 H3          -2.6560     3.6520     0.5860 h1         1 E2N       0.037367
     25 H4          -1.3410    -0.5730    -1.7260 h1         1 E2N       0.063700
     26 H5          -1.1510     1.1850    -1.8430 h1         1 E2N       0.063700
     27 H6           0.6190     0.0970    -2.8170 ha         1 E2N       0.149000
     28 H7           2.9570     0.0300    -3.4860 ha         1 E2N       0.129000
     29 H9           4.7640     0.1380    -1.8270 ha         1 E2N       0.139000
     30 H11          1.8060     0.4070     1.2930 ha         1 E2N       0.159000
     31 H12         -5.6630    -1.0510     0.6640 ho         1 E2N       0.501000
     32 O1          -5.6330    -0.1430     1.0920 oh         1 E2N      -0.660300
@<TRIPOS>BOND
     1     1     5 1   
     2     1    22 1   
     3     1    23 1   
     4     1    24 1   
     5     2     3 1   
     6     2    11 2   
     7     2    32 1   
     8     3     4 1   
     9     3     6 2   
    10     4    15 1   
    11     4    17 1   
    12     5     6 1   
    13     5    11 1   
    14     6     7 1   
    15     7    18 1   
    16     7    25 1   
    17     7    26 1   
    18     8     9 ar  
    19     8    16 ar  
    20     8    18 1   
    21     9    10 ar  
    22     9    27 1   
    23    10    12 ar  
    24    10    28 1   
    25    12    13 ar  
    26    12    29 1   
    27    13    14 1   
    28    13    16 ar  
    29    14    19 1   
    30    14    20 1   
    31    14    21 1   
    32    16    30 1   
    33    31    32 1   
@<TRIPOS>SUBSTRUCTURE
     1 E2N         1 TEMP              0 ****  ****    0 ROOT
