@<TRIPOS>MOLECULE
E2N
   32    33     1     0     0
SMALL
No Charge or Current Charge


@<TRIPOS>ATOM
      1 C1          -2.3160     3.0330     0.2440 c3         1 E2N       0.092900
      2 C2          -4.5040     0.3330     0.6980 cc         1 E2N       0.522300
      3 C3          -3.5810    -0.3570    -0.0770 cc         1 E2N      -0.295600
      4 C4          -3.6980    -1.7770    -0.4480 c          1 E2N       0.748600
      5 N1          -3.0220     1.7380     0.2480 na         1 E2N       0.101800
      6 C5          -2.6000     0.5550    -0.3850 cd         1 E2N      -0.121300
      7 C6          -1.3230     0.4380    -1.1900 c3         1 E2N       0.222900
      8 C7           1.0900     0.2790    -0.7020 ca         1 E2N       0.163100
      9 C8           1.4430     0.2550    -2.0680 ca         1 E2N      -0.171000
     10 C9           2.7950     0.1700    -2.4400 ca         1 E2N      -0.082000
     11 N2          -4.2280     1.5880     0.9270 nd         1 E2N      -0.599800
     12 C10          3.7970     0.1120    -1.4570 ca         1 E2N      -0.120000
     13 C11          3.4610     0.1440    -0.0870 ca         1 E2N      -0.164300
     14 C12          4.5520     0.0700     0.9910 c3         1 E2N       0.354300
     15 O2          -2.8370    -2.2990    -1.1350 o          1 E2N      -0.718000
     16 C13          2.0980     0.2200     0.2760 ca         1 E2N      -0.110000
     17 O3          -4.6820    -2.3790    -0.0400 o          1 E2N      -0.718000
     18 O4          -0.2190     0.3580    -0.2720 os         1 E2N      -0.335100
     19 F1           4.8020    -1.2090     1.3500 f          1 E2N      -0.118667
     20 F2           5.7250     0.6000     0.5740 f          1 E2N      -0.118667
     21 F3           4.2070     0.7360     2.1170 f          1 E2N      -0.118667
     22 H1          -1.3010     2.8970     0.6380 h1         1 E2N       0.037367
     23 H2          -2.2590     3.4140    -0.7820 h1         1 E2N       0.037367
     24 H3          -2.8510     3.7580     0.8700 h1         1 E2N       0.037367
     25 H4          -1.3570    -0.4450    -1.8380 h1         1 E2N       0.063700
     26 H5          -1.2260     1.3210    -1.8340 h1         1 E2N       0.063700
     27 H6           0.6900     0.2980    -2.8490 ha         1 E2N       0.131000
     28 H7           3.0680     0.1460    -3.4930 ha         1 E2N       0.111000
     29 H9           4.8380     0.0390    -1.7680 ha         1 E2N       0.121000
     30 H11          1.8080     0.2330     1.3240 ha         1 E2N       0.141000
     31 H12         -5.4850    -1.1770     0.8190 ho         1 E2N       0.540000
     32 O1          -5.5990    -0.2530     1.1760 oh         1 E2N      -0.699300
@<TRIPOS>BOND
     1     1     5 1   
     2     1    22 1   
     3     1    23 1   
     4     1    24 1   
     5     2     3 1   
     6     2    11 2   
     7     2    32 1   
     8     3     4 1   
     9     3     6 2   
    10     4    15 1   
    11     4    17 1   
    12     5     6 1   
    13     5    11 1   
    14     6     7 1   
    15     7    18 1   
    16     7    25 1   
    17     7    26 1   
    18     8     9 ar  
    19     8    16 ar  
    20     8    18 1   
    21     9    10 ar  
    22     9    27 1   
    23    10    12 ar  
    24    10    28 1   
    25    12    13 ar  
    26    12    29 1   
    27    13    14 1   
    28    13    16 ar  
    29    14    19 1   
    30    14    20 1   
    31    14    21 1   
    32    16    30 1   
    33    31    32 1   
@<TRIPOS>SUBSTRUCTURE
     1 E2N         1 TEMP              0 ****  ****    0 ROOT
