@<TRIPOS>MOLECULE
E2O
   46    49     1     0     0
SMALL
bcc


@<TRIPOS>ATOM
      1 C4         -39.4790    -3.5200     1.8190 ca         1 E2O      -0.291300
      2 C5         -38.3470    -4.2300     1.4450 ca         1 E2O       0.411200
      3 C7         -38.8580    -4.0800    -0.7550 ca         1 E2O       0.346900
      4 C8         -40.0160    -3.3860    -0.4840 ca         1 E2O       0.166700
      5 C10        -41.7660    -2.0800    -1.2930 ca         1 E2O       0.301000
      6 C13        -43.7140    -0.1810    -0.9340 ca         1 E2O       0.035400
      7 C15        -42.3530    -1.4820    -2.3850 ca         1 E2O      -0.179300
      8 C17        -41.2940    -0.8970     3.0780 c3         1 E2O      -0.107400
      9 C20        -42.7300    -2.6440     5.7290 c6         1 E2O      -0.074400
     10 C21        -41.5010    -1.7650     5.4920 c6         1 E2O      -0.101700
     11 C22        -41.0030    -1.2350     6.8400 c6         1 E2O       0.151800
     12 C24        -41.9040    -3.1220     8.0440 c6         1 E2O       0.147800
     13 C18        -41.7670    -0.6200     4.5020 c3         1 E2O      -0.066400
     14 N2         -41.5200    -2.3760     1.0840 na         1 E2O      -0.159100
     15 N23        -40.7520    -2.2570     7.8420 n7         1 E2O      -0.788200
     16 C11        -42.1380    -1.7340     0.0130 ca         1 E2O      -0.038600
     17 C3         -40.3600    -3.0750     0.8370 ca         1 E2O      -0.002600
     18 C12        -43.1170    -0.7620     0.1790 ca         1 E2O      -0.157000
     19 C19        -42.4470    -3.7350     6.7560 c6         1 E2O      -0.113400
     20 CL1        -44.9440     1.0140    -0.6810 cl         1 E2O      -0.106400
     21 C14        -43.3490    -0.5260    -2.2180 ca         1 E2O      -0.122000
     22 N6         -38.0260    -4.5100     0.1930 nb         1 E2O      -0.662000
     23 O9         -40.8310    -3.0470    -1.5220 os         1 E2O      -0.391800
     24 H1         -39.6480    -3.3250     2.8680 ha         1 E2O       0.145000
     25 H2         -37.6680    -4.5800     2.2150 h4         1 E2O       0.022100
     26 H3         -38.6060    -4.3080    -1.7850 h4         1 E2O       0.035100
     27 H4         -42.0430    -1.7750    -3.3800 ha         1 E2O       0.156000
     28 H5         -40.2080    -1.0310     3.0820 hc         1 E2O       0.052200
     29 H6         -41.4890    -0.0210     2.4540 hc         1 E2O       0.052200
     30 H8         -43.0880    -3.0850     4.7950 hc         1 E2O       0.040700
     31 H9         -40.6990    -2.3970     5.0820 hc         1 E2O       0.041700
     32 H10        -40.0840    -0.6600     6.6950 h1         1 E2O       0.052200
     33 H11        -41.7460    -0.5340     7.2430 h1         1 E2O       0.052200
     34 H12        -42.6940    -2.5280     8.5160 h1         1 E2O       0.053200
     35 H13        -41.6330    -3.9030     8.7580 h1         1 E2O       0.053200
     36 H14        -41.2580     0.2860     4.8440 hc         1 E2O       0.046200
     37 H15        -42.8340    -0.3750     4.4970 hc         1 E2O       0.046200
     38 H19        -39.9650    -2.8220     7.5440 hn         1 E2O       0.346800
     39 H20        -43.4270    -0.4470     1.1640 ha         1 E2O       0.153000
     40 H21        -43.3550    -4.3040     6.9680 hc         1 E2O       0.044200
     41 H22        -41.7170    -4.4440     6.3510 hc         1 E2O       0.044200
     42 H23        -43.8160    -0.0690    -3.0780 ha         1 E2O       0.155000
     43 C1         -41.9490    -2.1230     2.4470 c3         1 E2O       0.046300
     44 H7         -43.5460    -2.0090     6.0950 hc         1 E2O       0.040700
     45 H16        -43.0360    -2.0280     2.4530 h1         1 E2O       0.061200
     46 H17        -41.7420    -3.0210     3.0320 h1         1 E2O       0.061200
@<TRIPOS>BOND
     1     1     2 ar  
     2     1    17 ar  
     3     1    24 1   
     4     2    22 ar  
     5     2    25 1   
     6     3     4 ar  
     7     3    22 ar  
     8     3    26 1   
     9     4    17 ar  
    10     4    23 1   
    11     5     7 ar  
    12     5    16 ar  
    13     5    23 1   
    14     6    18 ar  
    15     6    20 1   
    16     6    21 ar  
    17     7    21 ar  
    18     7    27 1   
    19     8    13 1   
    20     8    28 1   
    21     8    29 1   
    22     8    43 1   
    23     9    10 1   
    24     9    19 1   
    25     9    30 1   
    26     9    44 1   
    27    10    11 1   
    28    10    13 1   
    29    10    31 1   
    30    11    15 1   
    31    11    32 1   
    32    11    33 1   
    33    12    15 1   
    34    12    19 1   
    35    12    34 1   
    36    12    35 1   
    37    13    36 1   
    38    13    37 1   
    39    14    16 1   
    40    14    17 1   
    41    14    43 1   
    42    15    38 1   
    43    16    18 ar  
    44    18    39 1   
    45    19    40 1   
    46    19    41 1   
    47    21    42 1   
    48    43    45 1   
    49    43    46 1   
@<TRIPOS>SUBSTRUCTURE
     1 E2O         1 TEMP              0 ****  ****    0 ROOT
