@<TRIPOS>MOLECULE
E2O
   46    49     1     0     0
SMALL
No Charge or Current Charge


@<TRIPOS>ATOM
      1 C4         -39.1080    -3.4390     1.4980 ca         1 E2O      -0.208000
      2 C5         -38.0930    -4.2950     1.0380 ca         1 E2O       0.345900
      3 C7         -39.0130    -4.3680    -1.0840 ca         1 E2O       0.346900
      4 C8         -40.0680    -3.5090    -0.7100 ca         1 E2O       0.057000
      5 C10        -41.9210    -2.1370    -1.3270 ca         1 E2O       0.126000
      6 C13        -43.7400    -0.0790    -0.7700 ca         1 E2O       0.127000
      7 C15        -42.7340    -1.6250    -2.3500 ca         1 E2O      -0.096000
      8 C17        -40.9840    -0.9210     3.1860 c3         1 E2O      -0.107400
      9 C20        -42.5460    -2.7970     5.6280 c6         1 E2O      -0.074400
     10 C21        -41.4490    -1.6910     5.6900 c6         1 E2O      -0.101700
     11 C22        -41.4690    -1.0300     7.1000 c6         1 E2O       0.151800
     12 C24        -42.3580    -3.0720     8.1580 c6         1 E2O       0.147800
     13 C18        -41.6020    -0.6050     4.5730 c3         1 E2O      -0.066400
     14 N2         -41.1940    -2.1890     1.0030 na         1 E2O      -0.087000
     15 N23        -41.3000    -2.0360     8.1770 n7         1 E2O      -0.843400
     16 C11        -42.0110    -1.6360    -0.0050 ca         1 E2O      -0.024000
     17 C3         -40.1340    -3.0310     0.6150 ca         1 E2O       0.012000
     18 C12        -42.9300    -0.5910     0.2570 ca         1 E2O      -0.139000
     19 C19        -42.3830    -3.8010     6.7950 c6         1 E2O      -0.113400
     20 Cl1        -44.8760     1.2160    -0.4210 cl         1 E2O      -0.198000
     21 C14        -43.6480    -0.5950    -2.0720 ca         1 E2O      -0.104000
     22 N6         -38.0370    -4.7620    -0.2290 nb         1 E2O      -0.662000
     23 O9         -41.0140    -3.1230    -1.6330 os         1 E2O      -0.303000
     24 H1         -39.0760    -3.1100     2.5310 ha         1 E2O       0.127000
     25 H2         -37.2980    -4.6190     1.7090 h4         1 E2O       0.022100
     26 H3         -38.9460    -4.7460    -2.1030 h4         1 E2O       0.035100
     27 H4         -42.6500    -2.0220    -3.3590 ha         1 E2O       0.138000
     28 H5         -39.9070    -1.0840     3.3020 hc         1 E2O       0.052200
     29 H6         -41.0830    -0.0220     2.5660 hc         1 E2O       0.052200
     30 H8         -42.5120    -3.3480     4.6820 hc         1 E2O       0.040700
     31 H9         -40.4630    -2.1550     5.5470 hc         1 E2O       0.041700
     32 H10        -40.6590    -0.2870     7.1700 h1         1 E2O       0.052200
     33 H11        -42.4200    -0.4930     7.2420 h1         1 E2O       0.052200
     34 H12        -43.3370    -2.6050     8.3440 h1         1 E2O       0.053200
     35 H13        -42.1810    -3.8010     8.9640 h1         1 E2O       0.053200
     36 H14        -41.1240     0.3230     4.9140 hc         1 E2O       0.046200
     37 H15        -42.6610    -0.3500     4.4420 hc         1 E2O       0.046200
     38 H19        -40.3950    -2.5010     8.0390 hn         1 E2O       0.402000
     39 H20        -43.0290    -0.1620     1.2500 ha         1 E2O       0.135000
     40 H21        -43.2050    -4.5290     6.7790 hc         1 E2O       0.044200
     41 H22        -41.4560    -4.3750     6.6640 hc         1 E2O       0.044200
     42 H23        -44.2790    -0.1940    -2.8620 ha         1 E2O       0.137000
     43 C1         -41.6080    -2.1160     2.4270 c3         1 E2O       0.075600
     44 H7         -43.5420    -2.3360     5.6810 hc         1 E2O       0.040700
     45 H16        -42.7020    -2.0540     2.4770 h1         1 E2O       0.061200
     46 H17        -41.3220    -3.0520     2.9200 h1         1 E2O       0.061200
@<TRIPOS>BOND
     1     1     2 ar  
     2     1    17 ar  
     3     1    24 1   
     4     2    22 ar  
     5     2    25 1   
     6     3     4 ar  
     7     3    22 ar  
     8     3    26 1   
     9     4    17 ar  
    10     4    23 1   
    11     5     7 ar  
    12     5    16 ar  
    13     5    23 1   
    14     6    18 ar  
    15     6    20 1   
    16     6    21 ar  
    17     7    21 ar  
    18     7    27 1   
    19     8    13 1   
    20     8    28 1   
    21     8    29 1   
    22     8    43 1   
    23     9    10 1   
    24     9    19 1   
    25     9    30 1   
    26     9    44 1   
    27    10    11 1   
    28    10    13 1   
    29    10    31 1   
    30    11    15 1   
    31    11    32 1   
    32    11    33 1   
    33    12    15 1   
    34    12    19 1   
    35    12    34 1   
    36    12    35 1   
    37    13    36 1   
    38    13    37 1   
    39    14    16 1   
    40    14    17 1   
    41    14    43 1   
    42    15    38 1   
    43    16    18 ar  
    44    18    39 1   
    45    19    40 1   
    46    19    41 1   
    47    21    42 1   
    48    43    45 1   
    49    43    46 1   
@<TRIPOS>SUBSTRUCTURE
     1 E2O         1 TEMP              0 ****  ****    0 ROOT
