@<TRIPOS>MOLECULE
E2P
   53    53     1     0     0
SMALL
abcg2


@<TRIPOS>ATOM
      1 C1           9.1170     2.9810     1.3350 c3         1 E2P      -0.088100
      2 C2           7.9810     2.8150     0.3360 c3         1 E2P      -0.075400
      3 C3           7.0520     1.6590     0.6860 c3         1 E2P      -0.076400
      4 C4           5.9260     1.4650    -0.3220 c3         1 E2P      -0.074400
      5 C5           4.9810     0.3350     0.0650 c3         1 E2P      -0.106400
      6 C6           3.8740     0.0880    -0.9580 c3         1 E2P       0.202500
      7 O6           4.3860    -0.2820    -2.2260 oh         1 E2P      -0.651000
      8 C7           2.9090    -0.9470    -0.4590 c2         1 E2P      -0.257200
      9 C8           1.6110    -0.7080    -0.2490 ce         1 E2P      -0.138000
     10 C9           0.6720    -1.6930     0.2430 ce         1 E2P      -0.068200
     11 C10          1.0920    -3.0920     0.6080 c5         1 E2P      -0.045200
     12 C11         -0.1950    -3.7750     1.0650 c5         1 E2P      -0.192400
     13 C12         -1.2690    -2.7150     0.9410 c          1 E2P       0.563300
     14 O12         -2.4420    -2.8570     1.2230 o          1 E2P      -0.496100
     15 C13         -0.6500    -1.4880     0.4320 cf         1 E2P      -0.155400
     16 C14         -1.4640    -0.2660     0.1510 c3         1 E2P       0.018000
     17 C15         -2.1480    -0.3890    -1.1830 c2         1 E2P      -0.269200
     18 C16         -3.4570    -0.4740    -1.4130 c2         1 E2P      -0.154200
     19 C17         -4.5670    -0.4280    -0.4130 c3         1 E2P      -0.064200
     20 C18         -5.4450     0.8140    -0.5860 c3         1 E2P      -0.048400
     21 C19         -6.5870     0.8560     0.4150 c3         1 E2P      -0.206400
     22 C20         -7.5270     2.0710     0.3200 c          1 E2P       0.717000
     23 O21         -7.2710     2.9420    -0.5360 o          1 E2P      -0.743000
     24 O20         -8.4820     2.0850     1.1240 o          1 E2P      -0.743000
     25 H13          9.7690     3.8140     1.0690 hc         1 E2P       0.029700
     26 H11          8.7360     3.1690     2.3410 hc         1 E2P       0.029700
     27 H12          9.7340     2.0810     1.3810 hc         1 E2P       0.029700
     28 H21          7.4000     3.7410     0.2810 hc         1 E2P       0.038200
     29 H22          8.3940     2.6580    -0.6650 hc         1 E2P       0.038200
     30 H31          7.6360     0.7340     0.7580 hc         1 E2P       0.035700
     31 H32          6.6270     1.8260     1.6820 hc         1 E2P       0.035700
     32 H41          5.3550     2.3960    -0.4140 hc         1 E2P       0.045200
     33 H42          6.3540     1.2700    -1.3090 hc         1 E2P       0.045200
     34 H51          5.5460    -0.5940     0.2130 hc         1 E2P       0.043700
     35 H52          4.5160     0.5630     1.0290 hc         1 E2P       0.043700
     36 H6           3.3310     1.0240    -1.1210 h1         1 E2P       0.077700
     37 HO6          4.9950    -1.0190    -2.1050 ho         1 E2P       0.434000
     38 H7           3.3230    -1.9350    -0.2640 ha         1 E2P       0.165000
     39 H8           1.2250     0.2850    -0.4600 ha         1 E2P       0.186000
     40 H101         1.5460    -3.5960    -0.2480 hc         1 E2P       0.052700
     41 H102         1.8510    -3.0720     1.3930 hc         1 E2P       0.052700
     42 H78         -0.1400    -4.1280     2.0970 hc         1 E2P       0.070700
     43 H79         -0.4570    -4.6380     0.4510 hc         1 E2P       0.070700
     44 H141        -2.1880    -0.1230     0.9540 hc         1 E2P       0.060200
     45 H142        -0.8230     0.6200     0.1460 hc         1 E2P       0.060200
     46 H15         -1.4750    -0.4270    -2.0340 ha         1 E2P       0.153000
     47 H16         -3.7730    -0.5600    -2.4500 ha         1 E2P       0.159000
     48 H171        -5.1910    -1.3210    -0.5330 hc         1 E2P       0.041700
     49 H172        -4.1800    -0.4680     0.6060 hc         1 E2P       0.041700
     50 H181        -4.8210     1.7060    -0.4810 hc         1 E2P       0.038700
     51 H182        -5.8400     0.8400    -1.6050 hc         1 E2P       0.038700
     52 H191        -7.1940    -0.0520     0.3210 hc         1 E2P       0.016700
     53 H192        -6.1820     0.8170     1.4340 hc         1 E2P       0.016700
@<TRIPOS>BOND
     1     1     2 1   
     2     1    25 1   
     3     1    26 1   
     4     1    27 1   
     5     2     3 1   
     6     2    28 1   
     7     2    29 1   
     8     3     4 1   
     9     3    30 1   
    10     3    31 1   
    11     4     5 1   
    12     4    32 1   
    13     4    33 1   
    14     5     6 1   
    15     5    34 1   
    16     5    35 1   
    17     6     7 1   
    18     6     8 1   
    19     6    36 1   
    20     7    37 1   
    21     8     9 2   
    22     8    38 1   
    23     9    10 1   
    24     9    39 1   
    25    10    11 1   
    26    10    15 2   
    27    11    12 1   
    28    11    40 1   
    29    11    41 1   
    30    12    13 1   
    31    12    42 1   
    32    12    43 1   
    33    13    14 2   
    34    13    15 1   
    35    15    16 1   
    36    16    17 1   
    37    16    44 1   
    38    16    45 1   
    39    17    18 2   
    40    17    46 1   
    41    18    19 1   
    42    18    47 1   
    43    19    20 1   
    44    19    48 1   
    45    19    49 1   
    46    20    21 1   
    47    20    50 1   
    48    20    51 1   
    49    21    22 1   
    50    21    52 1   
    51    21    53 1   
    52    22    23 1   
    53    22    24 1   
@<TRIPOS>SUBSTRUCTURE
     1 E2P         1 TEMP              0 ****  ****    0 ROOT
