@<TRIPOS>MOLECULE
E2P
   53    53     1     0     0
SMALL
No Charge or Current Charge


@<TRIPOS>ATOM
      1 C1           9.9860     2.1510     0.4140 c3         1 E2P      -0.088100
      2 C2           8.5550     2.4320    -0.0830 c3         1 E2P      -0.075400
      3 C3           7.5500     1.3280     0.3120 c3         1 E2P      -0.076400
      4 C4           6.1150     1.6090    -0.1850 c3         1 E2P      -0.074400
      5 C5           5.1090     0.5020     0.2130 c3         1 E2P      -0.106400
      6 C6           3.6530     0.7800    -0.2330 c3         1 E2P       0.202500
      7 O6           3.5760     0.7740    -1.6570 oh         1 E2P      -0.651000
      8 C7           2.6810    -0.2540     0.2850 c2         1 E2P      -0.257200
      9 C8           1.3330    -0.1600     0.2220 ce         1 E2P      -0.138000
     10 C9           0.3900    -1.1670     0.7350 ce         1 E2P      -0.068200
     11 C10          0.8660    -2.4720     1.3940 c5         1 E2P      -0.045200
     12 C11         -0.4490    -3.3120     1.3900 c5         1 E2P      -0.192400
     13 C12         -1.5710    -2.2780     1.4330 c          1 E2P       0.563300
     14 O12         -2.6470    -2.3290     2.0150 o          1 E2P      -0.496100
     15 C13         -0.9650    -1.0860     0.8110 cf         1 E2P      -0.155400
     16 C14         -1.8140     0.1190     0.4390 c3         1 E2P       0.018000
     17 C15         -2.0790     0.1740    -1.0550 c2         1 E2P      -0.269200
     18 C16         -3.2050    -0.1860    -1.6950 c2         1 E2P      -0.154200
     19 C17         -4.4640    -0.7640    -1.0750 c3         1 E2P      -0.064200
     20 C18         -5.5350     0.3170    -0.8170 c3         1 E2P      -0.048400
     21 C19         -6.8310    -0.2460    -0.1850 c3         1 E2P      -0.206400
     22 C20         -7.8490     0.8880     0.0350 c          1 E2P       0.717000
     23 O21         -7.8110     1.5000     1.0920 o          1 E2P      -0.743000
     24 O20         -8.6190     1.1560    -0.8740 o          1 E2P      -0.743000
     25 H13         10.6610     2.9600     0.1100 hc         1 E2P       0.029700
     26 H11         10.0100     2.0760     1.5080 hc         1 E2P       0.029700
     27 H12         10.3650     1.2120    -0.0060 hc         1 E2P       0.029700
     28 H21          8.2180     3.3930     0.3260 hc         1 E2P       0.038200
     29 H22          8.5700     2.5360    -1.1750 hc         1 E2P       0.038200
     30 H31          7.8910     0.3680    -0.0960 hc         1 E2P       0.035700
     31 H32          7.5390     1.2250     1.4050 hc         1 E2P       0.035700
     32 H41          5.7740     2.5690     0.2240 hc         1 E2P       0.045200
     33 H42          6.1300     1.7150    -1.2770 hc         1 E2P       0.045200
     34 H51          5.4420    -0.4590    -0.2000 hc         1 E2P       0.043700
     35 H52          5.1230     0.3960     1.3050 hc         1 E2P       0.043700
     36 H6           3.3590     1.7660     0.1570 h1         1 E2P       0.077700
     37 HO6          3.5740    -0.1690    -1.9240 ho         1 E2P       0.434000
     38 H7           3.1550    -1.1200     0.7470 ha         1 E2P       0.165000
     39 H8           0.8860     0.7230    -0.2400 ha         1 E2P       0.186000
     40 H101         1.6670    -2.9670     0.8320 hc         1 E2P       0.052700
     41 H102         1.2310    -2.2850     2.4110 hc         1 E2P       0.052700
     42 H78         -0.5450    -4.0560     2.1880 hc         1 E2P       0.070700
     43 H79         -0.5200    -3.8170     0.4200 hc         1 E2P       0.070700
     44 H141        -2.7570     0.1110     0.9980 hc         1 E2P       0.060200
     45 H142        -1.3140     1.0430     0.7550 hc         1 E2P       0.060200
     46 H15         -1.2410     0.5670    -1.6330 ha         1 E2P       0.153000
     47 H16         -3.2610    -0.0840    -2.7810 ha         1 E2P       0.159000
     48 H171        -4.8780    -1.5340    -1.7380 hc         1 E2P       0.041700
     49 H172        -4.2340    -1.2720    -0.1320 hc         1 E2P       0.041700
     50 H181        -5.1140     1.0860    -0.1560 hc         1 E2P       0.038700
     51 H182        -5.7800     0.8120    -1.7650 hc         1 E2P       0.038700
     52 H191        -7.2220    -0.9780    -0.9020 hc         1 E2P       0.016700
     53 H192        -6.5320    -0.6840     0.7750 hc         1 E2P       0.016700
@<TRIPOS>BOND
     1     1     2 1   
     2     1    25 1   
     3     1    26 1   
     4     1    27 1   
     5     2     3 1   
     6     2    28 1   
     7     2    29 1   
     8     3     4 1   
     9     3    30 1   
    10     3    31 1   
    11     4     5 1   
    12     4    32 1   
    13     4    33 1   
    14     5     6 1   
    15     5    34 1   
    16     5    35 1   
    17     6     7 1   
    18     6     8 1   
    19     6    36 1   
    20     7    37 1   
    21     8     9 2   
    22     8    38 1   
    23     9    10 1   
    24     9    39 1   
    25    10    11 1   
    26    10    15 2   
    27    11    12 1   
    28    11    40 1   
    29    11    41 1   
    30    12    13 1   
    31    12    42 1   
    32    12    43 1   
    33    13    14 2   
    34    13    15 1   
    35    15    16 1   
    36    16    17 1   
    37    16    44 1   
    38    16    45 1   
    39    17    18 2   
    40    17    46 1   
    41    18    19 1   
    42    18    47 1   
    43    19    20 1   
    44    19    48 1   
    45    19    49 1   
    46    20    21 1   
    47    20    50 1   
    48    20    51 1   
    49    21    22 1   
    50    21    52 1   
    51    21    53 1   
    52    22    23 1   
    53    22    24 1   
@<TRIPOS>SUBSTRUCTURE
     1 E2P         1 TEMP              0 ****  ****    0 ROOT
