@<TRIPOS>MOLECULE
E2Q
   31    33     1     0     0
SMALL
abcg2


@<TRIPOS>ATOM
      1 C01          0.7690     3.0550     0.7070 ca         1 E2Q      -0.116000
      2 C02         -0.4400     2.4580     0.4930 ca         1 E2Q      -0.054000
      3 C03         -0.5350     1.0730     0.2420 ca         1 E2Q      -0.063000
      4 C04         -1.7960     0.4600    -0.0130 ca         1 E2Q       0.080600
      5 C05         -1.8890    -0.9040    -0.1730 ca         1 E2Q       0.002600
      6 C06         -0.7570    -1.7040     0.0080 ca         1 E2Q      -0.031000
      7 C07          0.4590    -1.1340     0.2500 ca         1 E2Q      -0.159200
      8 C08          0.6460     0.2770     0.2620 ca         1 E2Q       0.099000
      9 C09          1.8890     0.9650     0.2920 ca         1 E2Q      -0.249500
     10 C10          1.9430     2.3110     0.5490 ca         1 E2Q      -0.020000
     11 C19         -4.2940    -0.8090    -0.4960 c          1 E2Q       0.493000
     12 C21         -4.1990     0.6960    -0.3030 c          1 E2Q       0.487000
     13 N14          4.0560     1.2800    -1.3600 n8         1 E2Q      -1.021100
     14 N15          1.4800    -2.0410     0.7330 no         1 E2Q       0.708200
     15 N18         -3.1180    -1.4810    -0.4210 ns         1 E2Q      -0.386100
     16 N23         -2.9500     1.2010    -0.1020 ns         1 E2Q      -0.389100
     17 O12          4.3830     0.2300     0.8490 o          1 E2Q      -0.509000
     18 O13          3.1240    -0.9660    -0.9990 o          1 E2Q      -0.509000
     19 O16          2.2210    -1.6240     1.5930 o          1 E2Q      -0.381500
     20 O17          1.4910    -3.1710     0.3120 o          1 E2Q      -0.381500
     21 O20         -5.3620    -1.3310    -0.6990 o          1 E2Q      -0.466000
     22 O22         -5.1840     1.3840    -0.3420 o          1 E2Q      -0.460000
     23 S11          3.4430     0.2410    -0.2550 sy         1 E2Q       1.149600
     24 H011         0.8270     4.1110     0.9300 ha         1 E2Q       0.131000
     25 H021        -1.3210     3.0830     0.5330 ha         1 E2Q       0.118000
     26 H061        -0.8690    -2.7810     0.0180 ha         1 E2Q       0.161000
     27 H101         2.8900     2.8320     0.5980 ha         1 E2Q       0.122000
     28 H141         3.4780     1.4290    -2.1790 hn         1 E2Q       0.484000
     29 H142         4.4440     2.1420    -1.0000 hn         1 E2Q       0.484000
     30 H181        -3.1590    -2.4860    -0.5380 hn         1 E2Q       0.342500
     31 H231        -2.9000     2.2090    -0.0510 hn         1 E2Q       0.335500
@<TRIPOS>BOND
     1     1     2 ar  
     2     1    10 ar  
     3     1    24 1   
     4     2     3 ar  
     5     2    25 1   
     6     3     4 ar  
     7     3     8 ar  
     8     4     5 ar  
     9     4    16 1   
    10     5     6 ar  
    11     5    15 1   
    12     6     7 ar  
    13     6    26 1   
    14     7     8 ar  
    15     7    14 1   
    16     8     9 ar  
    17     9    10 ar  
    18     9    23 1   
    19    10    27 1   
    20    11    12 1   
    21    11    15 1   
    22    11    21 2   
    23    12    16 1   
    24    12    22 2   
    25    13    23 1   
    26    13    28 1   
    27    13    29 1   
    28    14    19 1   
    29    14    20 1   
    30    15    30 1   
    31    16    31 1   
    32    17    23 2   
    33    18    23 2   
@<TRIPOS>SUBSTRUCTURE
     1 E2Q         1 TEMP              0 ****  ****    0 ROOT
