@<TRIPOS>MOLECULE
E2Q
   31    33     1     0     0
SMALL
No Charge or Current Charge


@<TRIPOS>ATOM
      1 C01          0.7680     3.0860     0.5180 ca         1 E2Q      -0.116000
      2 C02         -0.4630     2.4610     0.3250 ca         1 E2Q      -0.054000
      3 C03         -0.5430     1.0610     0.1500 ca         1 E2Q      -0.063000
      4 C04         -1.8150     0.4610    -0.0300 ca         1 E2Q       0.080600
      5 C05         -1.9310    -0.9340    -0.1290 ca         1 E2Q       0.002600
      6 C06         -0.8000    -1.7370     0.0220 ca         1 E2Q      -0.031000
      7 C07          0.4770    -1.1630     0.2090 ca         1 E2Q      -0.159200
      8 C08          0.6480     0.2620     0.1710 ca         1 E2Q       0.099000
      9 C09          1.9140     0.9530     0.1770 ca         1 E2Q      -0.249500
     10 C10          1.9450     2.3440     0.4310 ca         1 E2Q      -0.020000
     11 C19         -4.4130    -0.8490    -0.4040 c          1 E2Q       0.493000
     12 C21         -4.2960     0.7440    -0.2970 c          1 E2Q       0.487000
     13 N14          4.1370     1.3370    -1.3440 n8         1 E2Q      -1.021100
     14 N15          1.5360    -2.1080     0.6600 no         1 E2Q       0.708200
     15 N18         -3.2080    -1.5180    -0.3050 ns         1 E2Q      -0.386100
     16 N23         -3.0100     1.2220    -0.1200 ns         1 E2Q      -0.389100
     17 O12          4.4300     0.3320     0.8460 o          1 E2Q      -0.509000
     18 O13          3.3710    -0.9810    -1.0840 o          1 E2Q      -0.509000
     19 O16          2.1060    -1.8420     1.7250 o          1 E2Q      -0.381500
     20 O17          1.5790    -3.2250     0.1240 o          1 E2Q      -0.381500
     21 O20         -5.4740    -1.4440    -0.5610 o          1 E2Q      -0.466000
     22 O22         -5.2600     1.4990    -0.3640 o          1 E2Q      -0.460000
     23 S11          3.5190     0.2380    -0.2920 sy         1 E2Q       1.149600
     24 H011         0.8130     4.1600     0.6870 ha         1 E2Q       0.131000
     25 H021        -1.3520     3.0840     0.3490 ha         1 E2Q       0.118000
     26 H061        -0.9270    -2.8180     0.0470 ha         1 E2Q       0.161000
     27 H101         2.8900     2.8770     0.5270 ha         1 E2Q       0.122000
     28 H141         3.4230     2.0590    -1.3840 hn         1 E2Q       0.484000
     29 H142         4.8870     1.7440    -0.7900 hn         1 E2Q       0.484000
     30 H181        -3.2580    -2.5290    -0.3690 hn         1 E2Q       0.342500
     31 H231        -2.9250     2.2280    -0.0590 hn         1 E2Q       0.335500
@<TRIPOS>BOND
     1     1     2 ar  
     2     1    10 ar  
     3     1    24 1   
     4     2     3 ar  
     5     2    25 1   
     6     3     4 ar  
     7     3     8 ar  
     8     4     5 ar  
     9     4    16 1   
    10     5     6 ar  
    11     5    15 1   
    12     6     7 ar  
    13     6    26 1   
    14     7     8 ar  
    15     7    14 1   
    16     8     9 ar  
    17     9    10 ar  
    18     9    23 1   
    19    10    27 1   
    20    11    12 1   
    21    11    15 1   
    22    11    21 2   
    23    12    16 1   
    24    12    22 2   
    25    13    23 1   
    26    13    28 1   
    27    13    29 1   
    28    14    19 1   
    29    14    20 1   
    30    15    30 1   
    31    16    31 1   
    32    17    23 2   
    33    18    23 2   
@<TRIPOS>SUBSTRUCTURE
     1 E2Q         1 TEMP              0 ****  ****    0 ROOT
