@<TRIPOS>MOLECULE
E2R
   44    47     1     0     0
SMALL
No Charge or Current Charge


@<TRIPOS>ATOM
      1 C4          16.8170   -34.9380    -0.6470 ca         1 E2R      -0.146000
      2 C5          15.8630   -34.3950     0.2310 ca         1 E2R      -0.101000
      3 C6          15.8530   -34.7620     1.5840 ca         1 E2R      -0.115000
      4 C7          16.8010   -35.6800     2.0580 ca         1 E2R      -0.102000
      5 C8          17.7540   -36.2260     1.1830 ca         1 E2R       0.122000
      6 C10         19.5590   -37.7550     0.8760 ca         1 E2R       0.124000
      7 C13         21.4330   -39.0880    -0.7190 ca         1 E2R       0.130000
      8 C15         20.4010   -38.7260     1.4430 ca         1 E2R      -0.099000
      9 C17         18.2400   -37.1740    -6.0970 c6         1 E2R      -0.073900
     10 C20         16.7970   -36.8360    -3.5070 c6         1 E2R      -0.069400
     11 C21         16.2160   -37.7190    -4.6400 c6         1 E2R      -0.073900
     12 C22         16.6930   -37.2260    -6.0300 c6         1 E2R       0.162500
     13 N2          18.7740   -36.4370    -1.0330 na         1 E2R      -0.097000
     14 C19         18.3510   -36.7920    -3.5620 c6         1 E2R      -0.088700
     15 C11         19.6360   -37.4270    -0.5000 ca         1 E2R      -0.014000
     16 C3          17.7890   -35.8660    -0.1870 ca         1 E2R      -0.021000
     17 C12         20.5940   -38.1160    -1.2900 ca         1 E2R      -0.150000
     18 Cl1         22.6080   -39.9230    -1.7250 cl         1 E2R      -0.203000
     19 C14         21.3400   -39.3950     0.6450 ca         1 E2R      -0.110000
     20 N23         16.1550   -38.0850    -7.0990 n8         1 E2R      -0.997200
     21 C18         18.8230   -36.3000    -4.9580 c6         1 E2R      -0.069400
     22 O9          18.6530   -37.1280     1.6900 os         1 E2R      -0.315000
     23 H1          16.7730   -34.6190    -1.6820 ha         1 E2R       0.118000
     24 H2          15.1260   -33.6850    -0.1410 ha         1 E2R       0.116000
     25 H3          15.1130   -34.3400     2.2610 ha         1 E2R       0.121000
     26 H4          16.7980   -35.9730     3.1050 ha         1 E2R       0.131000
     27 H5          20.3220   -38.9580     2.5020 ha         1 E2R       0.135000
     28 H7          18.5630   -36.7730    -7.0680 hc         1 E2R       0.049450
     29 H8          16.3890   -35.8210    -3.6000 hc         1 E2R       0.040950
     30 H9          16.4610   -37.2260    -2.5360 hc         1 E2R       0.040950
     31 H10         15.1190   -37.7030    -4.5910 hc         1 E2R       0.049450
     32 H11         16.5230   -38.7630    -4.4860 hc         1 E2R       0.049450
     33 H12         16.2970   -36.2140    -6.2020 h1         1 E2R       0.011700
     34 H15         18.7170   -37.8180    -3.4240 hc         1 E2R       0.063700
     35 H16         20.7130   -37.9190    -2.3500 ha         1 E2R       0.133000
     36 H17         21.9930   -40.1480     1.0800 ha         1 E2R       0.135000
     37 H18         15.1300   -38.0210    -7.0870 hn         1 E2R       0.393000
     38 H20         16.4070   -37.6760    -8.0060 hn         1 E2R       0.393000
     39 H21         19.9210   -36.3180    -5.0110 hc         1 E2R       0.040950
     40 H22         18.5220   -35.2530    -5.1070 hc         1 E2R       0.040950
     41 C1          18.9870   -35.9310    -2.4200 c3         1 E2R       0.086600
     42 H6          18.6530   -38.1910    -6.0250 hc         1 E2R       0.049450
     43 H13         20.0680   -35.8690    -2.5950 h1         1 E2R       0.054700
     44 H14         18.6390   -34.8970    -2.5100 h1         1 E2R       0.054700
@<TRIPOS>BOND
     1     1     2 ar  
     2     1    16 ar  
     3     1    23 1   
     4     2     3 ar  
     5     2    24 1   
     6     3     4 ar  
     7     3    25 1   
     8     4     5 ar  
     9     4    26 1   
    10     5    16 ar  
    11     5    22 1   
    12     6     8 ar  
    13     6    15 ar  
    14     6    22 1   
    15     7    17 ar  
    16     7    18 1   
    17     7    19 ar  
    18     8    19 ar  
    19     8    27 1   
    20     9    12 1   
    21     9    21 1   
    22     9    28 1   
    23     9    42 1   
    24    10    11 1   
    25    10    14 1   
    26    10    29 1   
    27    10    30 1   
    28    11    12 1   
    29    11    31 1   
    30    11    32 1   
    31    12    20 1   
    32    12    33 1   
    33    13    15 1   
    34    13    16 1   
    35    13    41 1   
    36    14    21 1   
    37    14    34 1   
    38    14    41 1   
    39    15    17 ar  
    40    17    35 1   
    41    19    36 1   
    42    20    37 1   
    43    20    38 1   
    44    21    39 1   
    45    21    40 1   
    46    41    43 1   
    47    41    44 1   
@<TRIPOS>SUBSTRUCTURE
     1 E2R         1 TEMP              0 ****  ****    0 ROOT
