@<TRIPOS>MOLECULE
E2R
   44    47     1     0     0
SMALL
bcc


@<TRIPOS>ATOM
      1 C4          16.8910   -34.8760    -0.6570 ca         1 E2R      -0.164000
      2 C5          15.9330   -34.3640     0.2120 ca         1 E2R      -0.119000
      3 C6          15.8600   -34.8090     1.5180 ca         1 E2R      -0.133000
      4 C7          16.7590   -35.7770     1.9500 ca         1 E2R      -0.185300
      5 C8          17.7110   -36.2780     1.0870 ca         1 E2R       0.297000
      6 C10         19.4870   -37.7780     0.7690 ca         1 E2R       0.299000
      7 C13         21.4120   -38.9780    -0.7750 ca         1 E2R       0.038400
      8 C15         20.3010   -38.7490     1.3080 ca         1 E2R      -0.182300
      9 C17         18.2280   -37.2240    -5.9970 c6         1 E2R      -0.073900
     10 C20         16.8270   -36.8230    -3.4560 c6         1 E2R      -0.069400
     11 C21         16.2390   -37.6870    -4.5660 c6         1 E2R      -0.073900
     12 C22         16.7050   -37.2270    -5.9420 c6         1 E2R       0.162500
     13 N2          18.7870   -36.3830    -1.0720 na         1 E2R      -0.169100
     14 C19         18.3530   -36.8120    -3.5070 c6         1 E2R      -0.088700
     15 C11         19.6130   -37.3780    -0.5700 ca         1 E2R      -0.028600
     16 C3          17.8040   -35.8430    -0.2420 ca         1 E2R      -0.035600
     17 C12         20.5940   -38.0040    -1.3370 ca         1 E2R      -0.168000
     18 CL1         22.6180   -39.7180    -1.7790 cl         1 E2R      -0.111400
     19 C14         21.2840   -39.3660     0.5400 ca         1 E2R      -0.128000
     20 N23         16.1720   -38.1140    -6.9670 n8         1 E2R      -0.886800
     21 C18         18.8290   -36.3670    -4.8890 c6         1 E2R      -0.069400
     22 O9          18.5620   -37.2170     1.5930 os         1 E2R      -0.403800
     23 H1          16.9030   -34.5110    -1.6730 ha         1 E2R       0.136000
     24 H2          15.2440   -33.6140    -0.1530 ha         1 E2R       0.134000
     25 H3          15.1170   -34.4180     2.1990 ha         1 E2R       0.139000
     26 H4          16.7290   -36.1480     2.9670 ha         1 E2R       0.149000
     27 H5          20.1720   -39.0260     2.3470 ha         1 E2R       0.153000
     28 H7          18.5670   -36.8650    -6.9730 hc         1 E2R       0.049450
     29 H8          16.4560   -35.7970    -3.5640 hc         1 E2R       0.040950
     30 H9          16.4770   -37.1810    -2.4850 hc         1 E2R       0.040950
     31 H10         15.1460   -37.6640    -4.5120 hc         1 E2R       0.049450
     32 H11         16.5400   -38.7310    -4.4250 hc         1 E2R       0.049450
     33 H12         16.3680   -36.1840    -6.0760 h1         1 E2R       0.011700
     34 H15         18.6980   -37.8420    -3.3490 hc         1 E2R       0.063700
     35 H16         20.7350   -37.7470    -2.3750 ha         1 E2R       0.151000
     36 H17         21.9210   -40.1250     0.9710 ha         1 E2R       0.153000
     37 H18         15.1610   -38.0550    -6.9680 hn         1 E2R       0.337800
     38 H20         16.4620   -37.7850    -7.8810 hn         1 E2R       0.337800
     39 H21         19.9210   -36.4060    -4.9420 hc         1 E2R       0.040950
     40 H22         18.5500   -35.3180    -5.0430 hc         1 E2R       0.040950
     41 C1          18.9850   -35.9230    -2.4330 c3         1 E2R       0.057300
     42 H6          18.5820   -38.2570    -5.9000 hc         1 E2R       0.049450
     43 H13         20.0610   -35.8400    -2.6090 h1         1 E2R       0.054700
     44 H14         18.6150   -34.9020    -2.5230 h1         1 E2R       0.054700
@<TRIPOS>BOND
     1     1     2 ar  
     2     1    16 ar  
     3     1    23 1   
     4     2     3 ar  
     5     2    24 1   
     6     3     4 ar  
     7     3    25 1   
     8     4     5 ar  
     9     4    26 1   
    10     5    16 ar  
    11     5    22 1   
    12     6     8 ar  
    13     6    15 ar  
    14     6    22 1   
    15     7    17 ar  
    16     7    18 1   
    17     7    19 ar  
    18     8    19 ar  
    19     8    27 1   
    20     9    12 1   
    21     9    21 1   
    22     9    28 1   
    23     9    42 1   
    24    10    11 1   
    25    10    14 1   
    26    10    29 1   
    27    10    30 1   
    28    11    12 1   
    29    11    31 1   
    30    11    32 1   
    31    12    20 1   
    32    12    33 1   
    33    13    15 1   
    34    13    16 1   
    35    13    41 1   
    36    14    21 1   
    37    14    34 1   
    38    14    41 1   
    39    15    17 ar  
    40    17    35 1   
    41    19    36 1   
    42    20    37 1   
    43    20    38 1   
    44    21    39 1   
    45    21    40 1   
    46    41    43 1   
    47    41    44 1   
@<TRIPOS>SUBSTRUCTURE
     1 E2R         1 TEMP              0 ****  ****    0 ROOT
