@<TRIPOS>MOLECULE
E2T
   58    61     1     0     0
SMALL
No Charge or Current Charge


@<TRIPOS>ATOM
      1 CAA         -0.4840     4.3020     2.8930 c3         1 E2T      -0.095100
      2 CAB         -5.4600    -0.9060    -2.5270 c3         1 E2T      -0.197100
      3 CAC          2.7260    -3.4980     1.8450 c3         1 E2T      -0.051900
      4 CAD         -0.7400    -6.6360     0.3990 c3         1 E2T       0.110300
      5 CAH          6.5480     3.4350    -0.8510 cc         1 E2T      -0.199000
      6 CAI          5.3870     4.0770    -1.1830 cd         1 E2T       0.149900
      7 CAJ          6.1830     2.1610    -0.3730 cc         1 E2T      -0.097000
      8 CAK         -4.8800     2.2580    -0.2870 ca         1 E2T      -0.009000
      9 CAL         -3.8880     2.8550     0.5060 ca         1 E2T      -0.227000
     10 CAM          0.2030     1.0570    -0.1190 ca         1 E2T      -0.135000
     11 CAN          1.4890    -0.9670     0.2470 ca         1 E2T      -0.130000
     12 CAO         -0.9290    -1.0350     0.3420 ca         1 E2T      -0.101000
     13 CAP         -3.3550     0.4430    -0.8240 ca         1 E2T      -0.021000
     14 CAQ         -1.7970     4.0220     2.1460 c3         1 E2T       0.163600
     15 CAW          3.9640     0.9490    -0.0460 c          1 E2T       0.548600
     16 CAX          1.4480     0.4170    -0.0240 ca         1 E2T      -0.026000
     17 CAY         -4.6290     1.0440    -0.9600 ca         1 E2T      -0.222600
     18 CAZ         -1.0050     0.3500     0.0700 cp         1 E2T       0.007000
     19 CBA          0.3050    -1.7110     0.4390 ca         1 E2T       0.015200
     20 CBB          1.4030    -3.9050     1.2530 cc         1 E2T       0.117900
     21 CBC         -2.6220     2.2480     0.6360 ca         1 E2T       0.188100
     22 CBD          4.8160     2.1070    -0.4450 cd         1 E2T       0.044500
     23 CBE         -2.3350     1.0300    -0.0350 cp         1 E2T      -0.096000
     24 CBF          0.3430    -3.1690     0.7280 cd         1 E2T      -0.235400
     25 CBG         -0.7130    -4.1070     0.3450 c          1 E2T       0.567200
     26 NBH         -0.2020    -5.3150     0.7590 n          1 E2T      -0.285300
     27 OAE         -6.8120     0.9620    -1.9230 o          1 E2T      -0.536100
     28 OAF          4.4190    -0.0990     0.4040 o          1 E2T      -0.579100
     29 OAG         -1.7720    -3.9210    -0.2390 o          1 E2T      -0.540000
     30 OAS         -1.6300     2.7860     1.4340 os         1 E2T      -0.343100
     31 OAT          4.2860     3.2830    -0.9450 os         1 E2T      -0.245000
     32 OAU          1.0950    -5.2540     1.2930 os         1 E2T      -0.100200
     33 H1          -0.2630     3.4950     3.6010 hc         1 E2T       0.048700
     34 H2           0.3500     4.3890     2.1870 hc         1 E2T       0.048700
     35 H3          -0.5600     5.2410     3.4540 hc         1 E2T       0.048700
     36 H4          -4.5820    -0.7970    -3.1710 hc         1 E2T       0.063367
     37 H5          -5.1340    -1.6540    -1.7950 hc         1 E2T       0.063367
     38 H6          -6.3310    -1.2540    -3.0940 hc         1 E2T       0.063367
     39 H7           3.0790    -4.2480     2.5620 hc         1 E2T       0.070700
     40 H8           3.4910    -3.4000     1.0660 hc         1 E2T       0.070700
     41 H9           2.6450    -2.5450     2.3790 hc         1 E2T       0.070700
     42 H10         -0.2250    -7.4180     0.9710 h1         1 E2T       0.056700
     43 H11         -1.8130    -6.6740     0.6270 h1         1 E2T       0.056700
     44 H12         -0.5910    -6.8160    -0.6730 h1         1 E2T       0.056700
     45 H14          5.2140     5.0680    -1.5850 h4         1 E2T       0.057100
     46 H15          6.8590     1.3860    -0.0210 ha         1 E2T       0.160000
     47 H16         -5.8500     2.7460    -0.3710 ha         1 E2T       0.133000
     48 H17         -4.1230     3.7840     1.0150 ha         1 E2T       0.120000
     49 H18          0.1650     2.1190    -0.3480 ha         1 E2T       0.117000
     50 H19          2.4410    -1.4770     0.2560 ha         1 E2T       0.144000
     51 H20         -1.8560    -1.5710     0.5160 ha         1 E2T       0.131000
     52 H21         -3.1270    -0.4870    -1.3380 ha         1 E2T       0.129000
     53 H22         -2.6210     3.9480     2.8680 h1         1 E2T       0.037200
     54 H23         -2.0070     4.8470     1.4530 h1         1 E2T       0.037200
     55 CAV         -5.7200     0.4190    -1.8070 c          1 E2T       0.591700
     56 NAR          2.6120     1.2070    -0.2340 ns         1 E2T      -0.135000
     57 H13          7.5590     3.8220    -0.9340 ha         1 E2T       0.149000
     58 H24          2.4190     2.1350    -0.5890 hn         1 E2T       0.165000
@<TRIPOS>BOND
     1     1    14 1   
     2     1    33 1   
     3     1    34 1   
     4     1    35 1   
     5     2    36 1   
     6     2    37 1   
     7     2    38 1   
     8     2    55 1   
     9     3    20 1   
    10     3    39 1   
    11     3    40 1   
    12     3    41 1   
    13     4    26 1   
    14     4    42 1   
    15     4    43 1   
    16     4    44 1   
    17     5     6 2   
    18     5     7 1   
    19     5    57 1   
    20     6    31 1   
    21     6    45 1   
    22     7    22 2   
    23     7    46 1   
    24     8     9 ar  
    25     8    17 ar  
    26     8    47 1   
    27     9    21 ar  
    28     9    48 1   
    29    10    16 ar  
    30    10    18 ar  
    31    10    49 1   
    32    11    16 ar  
    33    11    19 ar  
    34    11    50 1   
    35    12    18 ar  
    36    12    19 ar  
    37    12    51 1   
    38    13    17 ar  
    39    13    23 ar  
    40    13    52 1   
    41    14    30 1   
    42    14    53 1   
    43    14    54 1   
    44    15    22 1   
    45    15    28 2   
    46    15    56 1   
    47    16    56 1   
    48    17    55 1   
    49    18    23 1   
    50    19    24 1   
    51    20    24 2   
    52    20    32 1   
    53    21    23 ar  
    54    21    30 1   
    55    22    31 1   
    56    24    25 1   
    57    25    26 1   
    58    25    29 2   
    59    26    32 1   
    60    27    55 2   
    61    56    58 1   
@<TRIPOS>SUBSTRUCTURE
     1 E2T         1 TEMP              0 ****  ****    0 ROOT
