@<TRIPOS>MOLECULE
E2T
   58    61     1     0     0
SMALL
abcg2


@<TRIPOS>ATOM
      1 CAA         -0.5870     4.1860     3.0270 c3         1 E2T      -0.095100
      2 CAB         -5.2950    -0.8120    -2.5090 c3         1 E2T      -0.197100
      3 CAC          2.3790    -3.3320     2.2960 c3         1 E2T      -0.051900
      4 CAD         -0.4650    -6.5890     0.3240 c3         1 E2T       0.110300
      5 CAH          6.5330     3.2940    -1.0840 cc         1 E2T      -0.199000
      6 CAI          5.3980     4.0330    -1.0030 cd         1 E2T       0.149900
      7 CAJ          6.1360     1.9430    -0.8900 cc         1 E2T      -0.097000
      8 CAK         -4.8150     2.2350    -0.2210 ca         1 E2T      -0.009000
      9 CAL         -3.8570     2.8070     0.5950 ca         1 E2T      -0.227000
     10 CAM          0.1960     1.0820    -0.1300 ca         1 E2T      -0.135000
     11 CAN          1.4850    -0.9340     0.1500 ca         1 E2T      -0.130000
     12 CAO         -0.9190    -0.9850     0.3620 ca         1 E2T      -0.101000
     13 CAP         -3.2880     0.4870    -0.7940 ca         1 E2T      -0.021000
     14 CAQ         -1.8400     3.9030     2.2350 c3         1 E2T       0.163600
     15 CAW          3.8520     0.8650    -0.4620 c          1 E2T       0.548600
     16 CAX          1.4310     0.4360    -0.1030 ca         1 E2T      -0.026000
     17 CAY         -4.5520     1.0620    -0.9260 ca         1 E2T      -0.222600
     18 CAZ         -0.9810     0.3800     0.0960 cp         1 E2T       0.007000
     19 CBA          0.3090    -1.6410     0.3950 ca         1 E2T       0.015200
     20 CBB          1.2350    -3.7520     1.4580 cc         1 E2T       0.117900
     21 CBC         -2.5980     2.2170     0.7230 ca         1 E2T       0.188100
     22 CBD          4.7900     1.9670    -0.7070 cd         1 E2T       0.044500
     23 CBE         -2.3010     1.0430     0.0050 cp         1 E2T      -0.096000
     24 CBF          0.3610    -3.0720     0.6840 cd         1 E2T      -0.235400
     25 CBG         -0.5600    -4.0620     0.1420 c          1 E2T       0.567200
     26 NBH         -0.1600    -5.2390     0.7000 n          1 E2T      -0.285300
     27 OAE         -6.6860     1.0130    -1.9030 o          1 E2T      -0.536100
     28 OAF          4.2660    -0.2790    -0.3780 o          1 E2T      -0.579100
     29 OAG         -1.5000    -3.9420    -0.6310 o          1 E2T      -0.540000
     30 OAS         -1.6350     2.6900     1.5150 os         1 E2T      -0.343100
     31 OAT          4.3380     3.2400    -0.7750 os         1 E2T      -0.245000
     32 OAU          0.9630    -5.0670     1.4640 os         1 E2T      -0.100200
     33 H1          -0.3930     3.4030     3.7600 hc         1 E2T       0.048700
     34 H2           0.2830     4.2790     2.3770 hc         1 E2T       0.048700
     35 H3          -0.7060     5.1260     3.5650 hc         1 E2T       0.048700
     36 H4          -4.4330    -0.6950    -3.1680 hc         1 E2T       0.063367
     37 H5          -5.0510    -1.6050    -1.8000 hc         1 E2T       0.063367
     38 H6          -6.1490    -1.1270    -3.1040 hc         1 E2T       0.063367
     39 H7           2.3460    -3.8230     3.2690 hc         1 E2T       0.070700
     40 H8           3.3280    -3.5930     1.8240 hc         1 E2T       0.070700
     41 H9           2.3610    -2.2570     2.4510 hc         1 E2T       0.070700
     42 H10         -0.6290    -7.2050     1.2060 h1         1 E2T       0.056700
     43 H11         -1.3860    -6.5580    -0.2520 h1         1 E2T       0.056700
     44 H12          0.3230    -7.0260    -0.2910 h1         1 E2T       0.056700
     45 H14          5.2030     5.0900    -1.0840 h4         1 E2T       0.057100
     46 H15          6.7690     1.0700    -0.8880 ha         1 E2T       0.160000
     47 H16         -5.7830     2.7100    -0.3020 ha         1 E2T       0.133000
     48 H17         -4.1050     3.7110     1.1330 ha         1 E2T       0.120000
     49 H18          0.1570     2.1410    -0.3540 ha         1 E2T       0.117000
     50 H19          2.4270    -1.4560     0.1400 ha         1 E2T       0.144000
     51 H20         -1.8300    -1.5320     0.5640 ha         1 E2T       0.131000
     52 H21         -3.0420    -0.4180    -1.3360 ha         1 E2T       0.129000
     53 H22         -2.7020     3.8030     2.9030 h1         1 E2T       0.037200
     54 H23         -2.0500     4.7190     1.5370 h1         1 E2T       0.037200
     55 CAV         -5.6040     0.4720    -1.7880 c          1 E2T       0.591700
     56 NAR          2.5520     1.2340    -0.3450 ns         1 E2T      -0.135000
     57 H13          7.5280     3.6660    -1.2600 ha         1 E2T       0.149000
     58 H24          2.3490     2.2170    -0.4570 hn         1 E2T       0.165000
@<TRIPOS>BOND
     1     1    14 1   
     2     1    33 1   
     3     1    34 1   
     4     1    35 1   
     5     2    36 1   
     6     2    37 1   
     7     2    38 1   
     8     2    55 1   
     9     3    20 1   
    10     3    39 1   
    11     3    40 1   
    12     3    41 1   
    13     4    26 1   
    14     4    42 1   
    15     4    43 1   
    16     4    44 1   
    17     5     6 2   
    18     5     7 1   
    19     5    57 1   
    20     6    31 1   
    21     6    45 1   
    22     7    22 2   
    23     7    46 1   
    24     8     9 ar  
    25     8    17 ar  
    26     8    47 1   
    27     9    21 ar  
    28     9    48 1   
    29    10    16 ar  
    30    10    18 ar  
    31    10    49 1   
    32    11    16 ar  
    33    11    19 ar  
    34    11    50 1   
    35    12    18 ar  
    36    12    19 ar  
    37    12    51 1   
    38    13    17 ar  
    39    13    23 ar  
    40    13    52 1   
    41    14    30 1   
    42    14    53 1   
    43    14    54 1   
    44    15    22 1   
    45    15    28 2   
    46    15    56 1   
    47    16    56 1   
    48    17    55 1   
    49    18    23 1   
    50    19    24 1   
    51    20    24 2   
    52    20    32 1   
    53    21    23 ar  
    54    21    30 1   
    55    22    31 1   
    56    24    25 1   
    57    25    26 1   
    58    25    29 2   
    59    26    32 1   
    60    27    55 2   
    61    56    58 1   
@<TRIPOS>SUBSTRUCTURE
     1 E2T         1 TEMP              0 ****  ****    0 ROOT
