@<TRIPOS>MOLECULE
E2U
   51    54     1     0     0
SMALL
No Charge or Current Charge


@<TRIPOS>ATOM
      1 C4          28.0350   117.1190     1.4700 ca         1 E2U      -0.207000
      2 C5          28.7120   116.0940     0.7880 ca         1 E2U       0.345900
      3 C7          28.0820   116.9460    -1.2690 ca         1 E2U       0.345900
      4 C8          27.3790   118.0110    -0.6680 ca         1 E2U       0.057000
      5 C10         26.2350   120.0960    -0.8730 ca         1 E2U       0.126000
      6 C13         25.2290   122.4620     0.2410 ca         1 E2U       0.127000
      7 C15         25.7830   121.1290    -1.7110 ca         1 E2U      -0.096000
      8 C17         27.0740   119.6260     3.7980 c3         1 E2U      -0.105400
      9 C20         26.5440   119.5750     5.2620 c6         1 E2U      -0.058700
     10 C21         26.3480   118.1230     5.7810 c6         1 E2U      -0.074900
     11 C22         25.8790   118.1100     7.2570 c6         1 E2U       0.176800
     12 N2          26.6240   119.1580     1.3470 na         1 E2U      -0.086000
     13 C11         26.1810   120.2240     0.5360 ca         1 E2U      -0.023000
     14 C3          27.3400   118.1090     0.7380 ca         1 E2U       0.010000
     15 C12         25.6770   121.4300     1.0830 ca         1 E2U      -0.139000
     16 N23         26.8190   118.8590     8.1370 n3         1 E2U      -0.735600
     17 Cl1         24.6040   123.9490     0.9410 cl         1 E2U      -0.198000
     18 C18         26.9880   120.2680     7.6880 c6         1 E2U       0.176800
     19 C14         25.2770   122.3140    -1.1530 ca         1 E2U      -0.104000
     20 N6          28.7400   115.9960    -0.5600 nb         1 E2U      -0.662000
     21 C19         27.4910   120.3380     6.2260 c6         1 E2U      -0.074900
     22 C25         25.1500   119.3360    10.0590 c3         1 E2U       0.109800
     23 N26         24.9010   119.1680    11.5130 n8         1 E2U      -0.993200
     24 O9          26.7530   118.9590    -1.4460 os         1 E2U      -0.304000
     25 H1          28.0650   117.1220     2.5540 ha         1 E2U       0.129000
     26 H2          29.2490   115.3240     1.3400 h4         1 E2U       0.022100
     27 H3          28.1230   116.8560    -2.3540 h4         1 E2U       0.035100
     28 H4          25.8330   121.0110    -2.7900 ha         1 E2U       0.138000
     29 H5          28.0470   119.1250     3.7400 hc         1 E2U       0.053700
     30 H6          27.2660   120.6700     3.5240 hc         1 E2U       0.053700
     31 H7          25.5690   120.0830     5.2620 hc         1 E2U       0.043700
     32 H8          25.6070   117.5910     5.1710 hc         1 E2U       0.046950
     33 H9          27.2890   117.5630     5.6940 hc         1 E2U       0.046950
     34 H10         24.8720   118.5490     7.3100 h1         1 E2U       0.030450
     35 H11         25.7960   117.0650     7.5910 h1         1 E2U       0.030450
     36 H12         26.5200   117.6650     9.8660 h1         1 E2U       0.058700
     37 H13         27.3110   119.2050    10.1730 h1         1 E2U       0.058700
     38 H14         25.1370   119.4800     2.8160 h1         1 E2U       0.059700
     39 H15         25.9750   117.9460     2.9470 h1         1 E2U       0.059700
     40 H16         25.6250   121.5870     2.1550 ha         1 E2U       0.134000
     41 H18         27.7080   120.7910     8.3340 h1         1 E2U       0.030450
     42 H19         26.0340   120.8120     7.7590 h1         1 E2U       0.030450
     43 H20         24.9280   123.1170    -1.7980 ha         1 E2U       0.137000
     44 H21         28.5040   119.9150     6.1710 hc         1 E2U       0.046950
     45 H22         27.5750   121.3890     5.9200 hc         1 E2U       0.046950
     46 H23         25.1320   120.4100     9.8350 h1         1 E2U       0.027700
     47 H24         24.3240   118.8580     9.5150 h1         1 E2U       0.027700
     48 H26         23.9760   119.5530    11.7430 hn         1 E2U       0.392500
     49 H27         24.8020   118.1670    11.7270 hn         1 E2U       0.392500
     50 C1          26.1260   119.0110     2.7370 c3         1 E2U       0.077600
     51 C24         26.5100   118.7280     9.5900 c3         1 E2U       0.174800
@<TRIPOS>BOND
     1     1     2 ar  
     2     1    14 ar  
     3     1    25 1   
     4     2    20 ar  
     5     2    26 1   
     6     3     4 ar  
     7     3    20 ar  
     8     3    27 1   
     9     4    14 ar  
    10     4    24 1   
    11     5     7 ar  
    12     5    13 ar  
    13     5    24 1   
    14     6    15 ar  
    15     6    17 1   
    16     6    19 ar  
    17     7    19 ar  
    18     7    28 1   
    19     8     9 1   
    20     8    29 1   
    21     8    30 1   
    22     8    50 1   
    23     9    10 1   
    24     9    21 1   
    25     9    31 1   
    26    10    11 1   
    27    10    32 1   
    28    10    33 1   
    29    11    16 1   
    30    11    34 1   
    31    11    35 1   
    32    12    13 1   
    33    12    14 1   
    34    12    50 1   
    35    13    15 ar  
    36    15    40 1   
    37    16    18 1   
    38    16    51 1   
    39    18    21 1   
    40    18    41 1   
    41    18    42 1   
    42    19    43 1   
    43    21    44 1   
    44    21    45 1   
    45    22    23 1   
    46    22    46 1   
    47    22    47 1   
    48    22    51 1   
    49    23    48 1   
    50    23    49 1   
    51    36    51 1   
    52    37    51 1   
    53    38    50 1   
    54    39    50 1   
@<TRIPOS>SUBSTRUCTURE
     1 E2U         1 TEMP              0 ****  ****    0 ROOT
