@<TRIPOS>MOLECULE
E2U
   51    54     1     0     0
SMALL
bcc


@<TRIPOS>ATOM
      1 C4          27.4820   117.0710     1.8110 ca         1 E2U      -0.290300
      2 C5          28.2750   116.0590     1.2850 ca         1 E2U       0.411200
      3 C7          28.2200   116.9590    -0.7920 ca         1 E2U       0.345900
      4 C8          27.4150   117.9930    -0.3700 ca         1 E2U       0.166700
      5 C10         26.4980   120.0860    -0.8190 ca         1 E2U       0.301000
      6 C13         25.4510   122.4820     0.0130 ca         1 E2U       0.035400
      7 C15         26.3960   121.1360    -1.7040 ca         1 E2U      -0.179300
      8 C17         26.7050   119.8030     3.7170 c3         1 E2U      -0.105400
      9 C20         26.2660   119.6540     5.1720 c6         1 E2U      -0.058700
     10 C21         26.3520   118.2070     5.6580 c6         1 E2U      -0.074900
     11 C22         26.0000   118.0960     7.1340 c6         1 E2U       0.176800
     12 N2          26.2130   119.1210     1.3680 na         1 E2U      -0.158100
     13 C11         26.0880   120.2150     0.5140 ca         1 E2U      -0.037600
     14 C3          27.0210   118.0800     0.9700 ca         1 E2U      -0.004600
     15 C12         25.5660   121.4360     0.9220 ca         1 E2U      -0.157000
     16 N23         26.8600   118.9500     7.9290 n3         1 E2U      -0.735600
     17 CL1         24.7850   123.9850     0.5620 cl         1 E2U      -0.106400
     18 C18         26.7300   120.3430     7.5520 c6         1 E2U       0.176800
     19 C14         25.8590   122.3530    -1.2980 ca         1 E2U      -0.122000
     20 N6          28.6460   115.9900     0.0180 nb         1 E2U      -0.662000
     21 C19         27.1070   120.5380     6.0910 c6         1 E2U      -0.074900
     22 C25         25.4670   119.0600    10.0490 c3         1 E2U       0.109800
     23 N26         25.5710   118.7460    11.4670 n8         1 E2U      -0.882800
     24 O9          26.9840   118.9010    -1.2910 os         1 E2U      -0.392800
     25 H1          27.2460   117.0500     2.8650 ha         1 E2U       0.147000
     26 H2          28.6260   115.2720     1.9420 h4         1 E2U       0.022100
     27 H3          28.5160   116.9090    -1.8350 h4         1 E2U       0.035100
     28 H4          26.7230   121.0010    -2.7270 ha         1 E2U       0.156000
     29 H5          27.6950   119.3510     3.5920 hc         1 E2U       0.053700
     30 H6          26.8290   120.8640     3.4800 hc         1 E2U       0.053700
     31 H7          25.2200   119.9810     5.2580 hc         1 E2U       0.043700
     32 H8          25.6840   117.5560     5.0890 hc         1 E2U       0.046950
     33 H9          27.3720   117.8380     5.5020 hc         1 E2U       0.046950
     34 H10         24.9300   118.3390     7.2600 h1         1 E2U       0.030450
     35 H11         26.1280   117.0630     7.4680 h1         1 E2U       0.030450
     36 H12         27.0030   117.6510     9.5270 h1         1 E2U       0.058700
     37 H13         27.5880   119.2750     9.8420 h1         1 E2U       0.058700
     38 H14         24.7800   119.7310     2.7310 h1         1 E2U       0.059700
     39 H15         25.4510   118.1640     3.0290 h1         1 E2U       0.059700
     40 H16         25.2440   121.5910     1.9420 ha         1 E2U       0.152000
     41 H18         27.3900   120.9400     8.1870 h1         1 E2U       0.030450
     42 H19         25.7080   120.7270     7.7120 h1         1 E2U       0.030450
     43 H20         25.7710   123.1710    -1.9980 ha         1 E2U       0.155000
     44 H21         28.1660   120.2950     5.9580 hc         1 E2U       0.046950
     45 H22         26.9820   121.5900     5.8200 hc         1 E2U       0.046950
     46 H23         25.2740   120.1310     9.9500 h1         1 E2U       0.027700
     47 H24         24.6350   118.5480     9.5460 h1         1 E2U       0.027700
     48 H26         24.7360   119.0600    11.9450 hn         1 E2U       0.337300
     49 H27         25.5880   117.7400    11.5860 hn         1 E2U       0.337300
     50 C1          25.7200   119.1780     2.7320 c3         1 E2U       0.048300
     51 C24         26.7850   118.7120     9.3550 c3         1 E2U       0.174800
@<TRIPOS>BOND
     1     1     2 ar  
     2     1    14 ar  
     3     1    25 1   
     4     2    20 ar  
     5     2    26 1   
     6     3     4 ar  
     7     3    20 ar  
     8     3    27 1   
     9     4    14 ar  
    10     4    24 1   
    11     5     7 ar  
    12     5    13 ar  
    13     5    24 1   
    14     6    15 ar  
    15     6    17 1   
    16     6    19 ar  
    17     7    19 ar  
    18     7    28 1   
    19     8     9 1   
    20     8    29 1   
    21     8    30 1   
    22     8    50 1   
    23     9    10 1   
    24     9    21 1   
    25     9    31 1   
    26    10    11 1   
    27    10    32 1   
    28    10    33 1   
    29    11    16 1   
    30    11    34 1   
    31    11    35 1   
    32    12    13 1   
    33    12    14 1   
    34    12    50 1   
    35    13    15 ar  
    36    15    40 1   
    37    16    18 1   
    38    16    51 1   
    39    18    21 1   
    40    18    41 1   
    41    18    42 1   
    42    19    43 1   
    43    21    44 1   
    44    21    45 1   
    45    22    23 1   
    46    22    46 1   
    47    22    47 1   
    48    22    51 1   
    49    23    48 1   
    50    23    49 1   
    51    36    51 1   
    52    37    51 1   
    53    38    50 1   
    54    39    50 1   
@<TRIPOS>SUBSTRUCTURE
     1 E2U         1 TEMP              0 ****  ****    0 ROOT
