@<TRIPOS>MOLECULE
E2V
  116   115     1     0     0
SMALL
abcg2


@<TRIPOS>ATOM
      1 C10        150.5160    62.3490   112.2830 c3         1 E2V      -0.070400
      2 C11        149.1760    62.3190   111.5420 c3         1 E2V      -0.072400
      3 C12        148.0370    63.0480   112.2460 c3         1 E2V      -0.079400
      4 C13        146.7470    63.0660   111.4340 c3         1 E2V      -0.073400
      5 C14        145.6200    63.8750   112.0730 c3         1 E2V      -0.070400
      6 C15        145.9660    65.3520   112.2250 c3         1 E2V      -0.079400
      7 C16        144.8070    66.2370   112.6630 c3         1 E2V      -0.074400
      8 C17        145.2690    67.6810   112.8030 c3         1 E2V      -0.075400
      9 C18        144.1440    68.6480   113.1840 c3         1 E2V      -0.190400
     10 C19        144.6740    69.9930   113.6180 c          1 E2V       0.606100
     11 C22        146.6210    70.3380   110.8320 c3         1 E2V       0.153300
     12 O23        147.4070    71.4900   111.1610 os         1 E2V      -0.440100
     13 C25        149.3770    72.6460   111.6830 c3         1 E2V      -0.138400
     14 C01        155.6330    71.4230   110.2870 c3         1 E2V      -0.091100
     15 C02        154.5040    70.4040   110.2320 c3         1 E2V      -0.075400
     16 C03        154.0400    69.9530   111.6110 c3         1 E2V      -0.076400
     17 C04        152.9290    68.9110   111.5650 c3         1 E2V      -0.079400
     18 C05        152.4620    68.4740   112.9480 c3         1 E2V      -0.067400
     19 C06        151.4020    67.3730   112.9390 c3         1 E2V      -0.073400
     20 C07        151.9100    66.0240   112.4400 c3         1 E2V      -0.077400
     21 C08        150.8650    64.9160   112.5210 c3         1 E2V      -0.074400
     22 C09        151.3970    63.5730   112.0290 c3         1 E2V      -0.073400
     23 C21        145.2120    70.6210   111.3160 c3         1 E2V       0.179600
     24 C24        148.7240    71.3440   111.3090 c          1 E2V       0.599100
     25 C26        150.8920    72.6270   111.5520 c3         1 E2V      -0.069400
     26 C27        151.5090    73.9710   111.9180 c3         1 E2V      -0.075400
     27 C28        153.0220    73.9840   111.7530 c3         1 E2V      -0.076400
     28 C29        153.6630    75.3200   112.1080 c3         1 E2V      -0.074400
     29 C30        155.1730    75.3260   111.9060 c3         1 E2V      -0.074400
     30 C31        155.8270    76.6540   112.2650 c3         1 E2V      -0.074400
     31 C32        157.3330    76.6640   112.0330 c3         1 E2V      -0.074400
     32 C33        157.9920    77.9870   112.3990 c3         1 E2V      -0.075400
     33 C34        159.4960    78.0020   112.1510 c3         1 E2V      -0.075400
     34 C35        160.1450    79.3290   112.5260 c3         1 E2V      -0.072400
     35 C36        161.6380    79.4120   112.2160 c3         1 E2V      -0.072400
     36 C37        162.5030    78.4530   113.0280 c3         1 E2V      -0.076400
     37 C38        163.9930    78.6200   112.7550 c3         1 E2V      -0.076400
     38 C39        164.8570    77.6710   113.5740 c3         1 E2V      -0.088100
     39 C41        146.6250    70.0860   109.3350 c3         1 E2V      -0.119100
     40 O20        145.1810    70.8430   112.7210 os         1 E2V      -0.448100
     41 O40        149.2970    70.2940   111.1680 o          1 E2V      -0.492000
     42 O42        144.6950    70.3420   114.7710 o          1 E2V      -0.433000
     43 H1         151.0950    61.4680   111.9900 hc         1 E2V       0.036700
     44 H2         150.3410    62.2420   113.3590 hc         1 E2V       0.036700
     45 H3         149.3120    62.7390   110.5380 hc         1 E2V       0.035700
     46 H4         148.8750    61.2780   111.3880 hc         1 E2V       0.035700
     47 H5         148.3450    64.0700   112.4700 hc         1 E2V       0.040200
     48 H6         147.8480    62.5750   113.2160 hc         1 E2V       0.040200
     49 H7         146.4100    62.0380   111.2690 hc         1 E2V       0.037200
     50 H8         146.9550    63.4780   110.4390 hc         1 E2V       0.037200
     51 H9         145.3680    63.4520   113.0520 hc         1 E2V       0.038200
     52 H10        144.7200    63.7780   111.4570 hc         1 E2V       0.038200
     53 H11        146.3580    65.7230   111.2710 hc         1 E2V       0.040700
     54 H12        146.7790    65.4680   112.9480 hc         1 E2V       0.040700
     55 H13        144.4010    65.8830   113.6150 hc         1 E2V       0.041700
     56 H14        143.9920    66.1780   111.9340 hc         1 E2V       0.041700
     57 H15        145.7160    67.9810   111.8540 hc         1 E2V       0.046700
     58 H16        146.0670    67.7320   113.5490 hc         1 E2V       0.046700
     59 H17        143.5930    68.2470   114.0340 hc         1 E2V       0.070200
     60 H18        143.4310    68.7410   112.3620 hc         1 E2V       0.070200
     61 H19        147.0270    69.4680   111.3540 h1         1 E2V       0.071700
     62 H20        148.9470    73.4460   111.0740 hc         1 E2V       0.074700
     63 H21        149.0880    72.8750   112.7150 hc         1 E2V       0.074700
     64 H22        155.9500    71.7270   109.2880 hc         1 E2V       0.030367
     65 H23        155.3240    72.3230   110.8210 hc         1 E2V       0.030367
     66 H24        156.5070    71.0210   110.8030 hc         1 E2V       0.030367
     67 H25        153.6540    70.8290   109.6880 hc         1 E2V       0.036200
     68 H26        154.8270    69.5310   109.6550 hc         1 E2V       0.036200
     69 H27        154.8950    69.5480   112.1650 hc         1 E2V       0.034200
     70 H28        153.7000    70.8250   112.1810 hc         1 E2V       0.034200
     71 H29        152.0720    69.3140   111.0150 hc         1 E2V       0.043200
     72 H30        153.2830    68.0450   110.9950 hc         1 E2V       0.043200
     73 H31        153.3230    68.1360   113.5370 hc         1 E2V       0.034200
     74 H32        152.0620    69.3480   113.4720 hc         1 E2V       0.034200
     75 H33        151.0170    67.2480   113.9560 hc         1 E2V       0.041200
     76 H34        150.5490    67.6960   112.3320 hc         1 E2V       0.041200
     77 H35        152.2550    66.1130   111.4050 hc         1 E2V       0.035700
     78 H36        152.7900    65.7330   113.0250 hc         1 E2V       0.035700
     79 H37        150.5210    64.8170   113.5570 hc         1 E2V       0.037200
     80 H38        149.9910    65.2180   111.9370 hc         1 E2V       0.037200
     81 H39        151.6090    63.6430   110.9560 hc         1 E2V       0.035200
     82 H40        152.3650    63.3910   112.5090 hc         1 E2V       0.035200
     83 H41        144.8320    71.5310   110.8480 h1         1 E2V       0.060700
     84 H42        144.5570    69.8050   111.0100 h1         1 E2V       0.060700
     85 H43        151.3140    71.8450   112.1880 hc         1 E2V       0.053700
     86 H44        151.1690    72.3670   110.5260 hc         1 E2V       0.053700
     87 H45        151.0690    74.7590   111.2960 hc         1 E2V       0.038200
     88 H46        151.2520    74.2240   112.9530 hc         1 E2V       0.038200
     89 H47        153.4610    73.1960   112.3760 hc         1 E2V       0.040200
     90 H48        153.2740    73.7230   110.7190 hc         1 E2V       0.040200
     91 H49        153.2120    76.1130   111.5010 hc         1 E2V       0.037200
     92 H50        153.4340    75.5700   113.1500 hc         1 E2V       0.037200
     93 H51        155.6230    74.5270   112.5060 hc         1 E2V       0.037200
     94 H52        155.3970    75.0800   110.8620 hc         1 E2V       0.037200
     95 H53        155.3650    77.4570   111.6790 hc         1 E2V       0.037200
     96 H54        155.6210    76.8900   113.3150 hc         1 E2V       0.037200
     97 H55        157.7950    75.8560   112.6110 hc         1 E2V       0.037200
     98 H56        157.5370    76.4350   110.9810 hc         1 E2V       0.037200
     99 H57        157.5230    78.7970   111.8290 hc         1 E2V       0.036700
    100 H58        157.7980    78.2100   113.4550 hc         1 E2V       0.036700
    101 H59        159.9590    77.1840   112.7130 hc         1 E2V       0.037700
    102 H60        159.6900    77.7890   111.0940 hc         1 E2V       0.037700
    103 H61        159.6290    80.1350   111.9940 hc         1 E2V       0.036700
    104 H62        159.9870    79.5240   113.5920 hc         1 E2V       0.036700
    105 H63        161.9790    80.4350   112.4030 hc         1 E2V       0.036700
    106 H64        161.7980    79.2300   111.1480 hc         1 E2V       0.036700
    107 H65        162.2170    77.4180   112.8170 hc         1 E2V       0.038200
    108 H66        162.3100    78.6110   114.0950 hc         1 E2V       0.038200
    109 H67        164.2860    79.6540   112.9630 hc         1 E2V       0.035700
    110 H68        164.1840    78.4600   111.6890 hc         1 E2V       0.035700
    111 H69        165.9180    77.8140   113.3680 hc         1 E2V       0.031367
    112 H70        164.7050    77.8240   114.6440 hc         1 E2V       0.031367
    113 H71        164.6170    76.6290   113.3550 hc         1 E2V       0.031367
    114 H72        145.9960    69.2270   109.0990 hc         1 E2V       0.051367
    115 H73        146.2400    70.9470   108.7870 hc         1 E2V       0.051367
    116 H74        147.6290    69.8670   108.9760 hc         1 E2V       0.051367
@<TRIPOS>BOND
     1     1     2 1   
     2     1    22 1   
     3     1    43 1   
     4     1    44 1   
     5     2     3 1   
     6     2    45 1   
     7     2    46 1   
     8     3     4 1   
     9     3    47 1   
    10     3    48 1   
    11     4     5 1   
    12     4    49 1   
    13     4    50 1   
    14     5     6 1   
    15     5    51 1   
    16     5    52 1   
    17     6     7 1   
    18     6    53 1   
    19     6    54 1   
    20     7     8 1   
    21     7    55 1   
    22     7    56 1   
    23     8     9 1   
    24     8    57 1   
    25     8    58 1   
    26     9    10 1   
    27     9    59 1   
    28     9    60 1   
    29    10    40 1   
    30    10    42 2   
    31    11    12 1   
    32    11    23 1   
    33    11    39 1   
    34    11    61 1   
    35    12    24 1   
    36    13    24 1   
    37    13    25 1   
    38    13    62 1   
    39    13    63 1   
    40    14    15 1   
    41    14    64 1   
    42    14    65 1   
    43    14    66 1   
    44    15    16 1   
    45    15    67 1   
    46    15    68 1   
    47    16    17 1   
    48    16    69 1   
    49    16    70 1   
    50    17    18 1   
    51    17    71 1   
    52    17    72 1   
    53    18    19 1   
    54    18    73 1   
    55    18    74 1   
    56    19    20 1   
    57    19    75 1   
    58    19    76 1   
    59    20    21 1   
    60    20    77 1   
    61    20    78 1   
    62    21    22 1   
    63    21    79 1   
    64    21    80 1   
    65    22    81 1   
    66    22    82 1   
    67    23    40 1   
    68    23    83 1   
    69    23    84 1   
    70    24    41 2   
    71    25    26 1   
    72    25    85 1   
    73    25    86 1   
    74    26    27 1   
    75    26    87 1   
    76    26    88 1   
    77    27    28 1   
    78    27    89 1   
    79    27    90 1   
    80    28    29 1   
    81    28    91 1   
    82    28    92 1   
    83    29    30 1   
    84    29    93 1   
    85    29    94 1   
    86    30    31 1   
    87    30    95 1   
    88    30    96 1   
    89    31    32 1   
    90    31    97 1   
    91    31    98 1   
    92    32    33 1   
    93    32    99 1   
    94    32   100 1   
    95    33    34 1   
    96    33   101 1   
    97    33   102 1   
    98    34    35 1   
    99    34   103 1   
   100    34   104 1   
   101    35    36 1   
   102    35   105 1   
   103    35   106 1   
   104    36    37 1   
   105    36   107 1   
   106    36   108 1   
   107    37    38 1   
   108    37   109 1   
   109    37   110 1   
   110    38   111 1   
   111    38   112 1   
   112    38   113 1   
   113    39   114 1   
   114    39   115 1   
   115    39   116 1   
@<TRIPOS>SUBSTRUCTURE
     1 E2V         1 TEMP              0 ****  ****    0 ROOT
