@<TRIPOS>MOLECULE
E2V
  116   115     1     0     0
SMALL
No Charge or Current Charge


@<TRIPOS>ATOM
      1 C10        150.4910    62.3400   112.8400 c3         1 E2V      -0.070400
      2 C11        149.4440    62.1710   111.7060 c3         1 E2V      -0.072400
      3 C12        148.0780    62.8450   111.9930 c3         1 E2V      -0.079400
      4 C13        147.1620    62.9280   110.7490 c3         1 E2V      -0.073400
      5 C14        145.8580    63.7400   110.9570 c3         1 E2V      -0.070400
      6 C15        146.1040    65.2190   111.3430 c3         1 E2V      -0.079400
      7 C16        144.8520    66.1180   111.2680 c3         1 E2V      -0.074400
      8 C17        145.1600    67.5520   111.7490 c3         1 E2V      -0.075400
      9 C18        144.0070    68.5630   111.5250 c3         1 E2V      -0.190400
     10 C19        144.1860    69.8710   112.3320 c          1 E2V       0.606100
     11 C22        147.1700    70.4010   111.5190 c3         1 E2V       0.153300
     12 O23        147.6760    71.6050   112.1330 os         1 E2V      -0.440100
     13 C25        149.1330    72.8160   113.6130 c3         1 E2V      -0.138400
     14 C01        155.2460    71.9050   110.6900 c3         1 E2V      -0.091100
     15 C02        154.5360    70.5390   110.6180 c3         1 E2V      -0.075400
     16 C03        153.4890    70.3430   111.7350 c3         1 E2V      -0.076400
     17 C04        152.7550    68.9860   111.6520 c3         1 E2V      -0.079400
     18 C05        151.7560    68.7740   112.8130 c3         1 E2V      -0.067400
     19 C06        150.8740    67.5090   112.6860 c3         1 E2V      -0.073400
     20 C07        151.6410    66.1670   112.7560 c3         1 E2V      -0.077400
     21 C08        150.6890    64.9520   112.7150 c3         1 E2V      -0.074400
     22 C09        151.4140    63.5860   112.7260 c3         1 E2V      -0.073400
     23 C21        145.8670    70.7490   110.7420 c3         1 E2V       0.179600
     24 C24        148.4600    71.4910   113.2530 c          1 E2V       0.599100
     25 C26        150.5750    72.8440   113.0530 c3         1 E2V      -0.069400
     26 C27        151.3340    74.1560   113.3440 c3         1 E2V      -0.075400
     27 C28        152.7650    74.1440   112.7640 c3         1 E2V      -0.076400
     28 C29        153.5560    75.4370   113.0530 c3         1 E2V      -0.074400
     29 C30        154.9840    75.4070   112.4640 c3         1 E2V      -0.074400
     30 C31        155.7860    76.6940   112.7520 c3         1 E2V      -0.074400
     31 C32        157.2130    76.6590   112.1620 c3         1 E2V      -0.074400
     32 C33        158.0180    77.9450   112.4500 c3         1 E2V      -0.075400
     33 C34        159.4440    77.9090   111.8590 c3         1 E2V      -0.075400
     34 C35        160.2510    79.1960   112.1510 c3         1 E2V      -0.072400
     35 C36        161.6540    79.2360   111.5010 c3         1 E2V      -0.072400
     36 C37        162.6440    78.1780   112.0450 c3         1 E2V      -0.076400
     37 C38        164.0570    78.3070   111.4370 c3         1 E2V      -0.076400
     38 C39        165.0440    77.2520   111.9740 c3         1 E2V      -0.088100
     39 C41        148.2860    69.8650   110.5950 c3         1 E2V      -0.119100
     40 O20        144.7800    70.9340   111.6840 os         1 E2V      -0.448100
     41 O40        148.6220    70.4590   113.8890 o          1 E2V      -0.492000
     42 O42        143.7770    69.9760   113.4770 o          1 E2V      -0.433000
     43 H1         151.1360    61.4520   112.8410 hc         1 E2V       0.036700
     44 H2         149.9830    62.3440   113.8130 hc         1 E2V       0.036700
     45 H3         149.8650    62.5590   110.7700 hc         1 E2V       0.035700
     46 H4         149.2680    61.1010   111.5440 hc         1 E2V       0.035700
     47 H5         148.2470    63.8500   112.3850 hc         1 E2V       0.040200
     48 H6         147.5620    62.2910   112.7870 hc         1 E2V       0.040200
     49 H7         146.9000    61.9110   110.4310 hc         1 E2V       0.037200
     50 H8         147.7220    63.3780   109.9200 hc         1 E2V       0.037200
     51 H9         145.2440    63.2600   111.7290 hc         1 E2V       0.038200
     52 H10        145.2790    63.7060   110.0260 hc         1 E2V       0.038200
     53 H11        146.8770    65.6360   110.6840 hc         1 E2V       0.040700
     54 H12        146.4990    65.2640   112.3650 hc         1 E2V       0.040700
     55 H13        144.0500    65.6900   111.8820 hc         1 E2V       0.041700
     56 H14        144.4900    66.1480   110.2320 hc         1 E2V       0.041700
     57 H15        146.0530    67.8980   111.2210 hc         1 E2V       0.046700
     58 H16        145.4120    67.5180   112.8170 hc         1 E2V       0.046700
     59 H17        143.0740    68.0930   111.8570 hc         1 E2V       0.070200
     60 H18        143.9460    68.7740   110.4530 hc         1 E2V       0.070200
     61 H19        146.9340    69.6430   112.2760 h1         1 E2V       0.071700
     62 H20        148.5760    73.6430   113.1590 hc         1 E2V       0.074700
     63 H21        149.1680    72.9210   114.7030 hc         1 E2V       0.074700
     64 H22        156.0030    71.9840   109.9010 hc         1 E2V       0.030367
     65 H23        154.5280    72.7220   110.5570 hc         1 E2V       0.030367
     66 H24        155.7450    72.0340   111.6580 hc         1 E2V       0.030367
     67 H25        154.0480    70.4420   109.6400 hc         1 E2V       0.036200
     68 H26        155.2870    69.7430   110.6820 hc         1 E2V       0.036200
     69 H27        153.9840    70.4270   112.7110 hc         1 E2V       0.034200
     70 H28        152.7510    71.1520   111.6790 hc         1 E2V       0.034200
     71 H29        152.2170    68.9270   110.6970 hc         1 E2V       0.043200
     72 H30        153.4950    68.1770   111.6560 hc         1 E2V       0.043200
     73 H31        152.3040    68.7400   113.7630 hc         1 E2V       0.034200
     74 H32        151.0940    69.6450   112.8660 hc         1 E2V       0.034200
     75 H33        150.1290    67.5320   113.4910 hc         1 E2V       0.041200
     76 H34        150.3150    67.5540   111.7440 hc         1 E2V       0.041200
     77 H35        152.3430    66.1000   111.9160 hc         1 E2V       0.035700
     78 H36        152.2340    66.1330   113.6780 hc         1 E2V       0.035700
     79 H37        150.0070    65.0050   113.5720 hc         1 E2V       0.037200
     80 H38        150.0820    65.0260   111.8050 hc         1 E2V       0.037200
     81 H39        152.0200    63.4980   111.8160 hc         1 E2V       0.035200
     82 H40        152.1160    63.5670   113.5680 hc         1 E2V       0.035200
     83 H41        146.0390    71.6790   110.1840 h1         1 E2V       0.060700
     84 H42        145.6480    69.9740   110.0000 h1         1 E2V       0.060700
     85 H43        151.1390    72.0070   113.4830 hc         1 E2V       0.053700
     86 H44        150.5420    72.6810   111.9680 hc         1 E2V       0.053700
     87 H45        150.7760    75.0000   112.9200 hc         1 E2V       0.038200
     88 H46        151.3830    74.3130   114.4290 hc         1 E2V       0.038200
     89 H47        153.3140    73.2890   113.1770 hc         1 E2V       0.040200
     90 H48        152.7070    73.9940   111.6790 hc         1 E2V       0.040200
     91 H49        153.0120    76.2940   112.6370 hc         1 E2V       0.037200
     92 H50        153.6160    75.5890   114.1380 hc         1 E2V       0.037200
     93 H51        155.5240    74.5450   112.8750 hc         1 E2V       0.037200
     94 H52        154.9220    75.2570   111.3780 hc         1 E2V       0.037200
     95 H53        155.2460    77.5550   112.3400 hc         1 E2V       0.037200
     96 H54        155.8490    76.8430   113.8370 hc         1 E2V       0.037200
     97 H55        157.7520    75.7960   112.5730 hc         1 E2V       0.037200
     98 H56        157.1500    76.5090   111.0770 hc         1 E2V       0.037200
     99 H57        157.4790    78.8070   112.0380 hc         1 E2V       0.036700
    100 H58        158.0820    78.0940   113.5350 hc         1 E2V       0.036700
    101 H59        159.9740    77.0420   112.2710 hc         1 E2V       0.037700
    102 H60        159.3810    77.7620   110.7730 hc         1 E2V       0.037700
    103 H61        159.6790    80.0590   111.7880 hc         1 E2V       0.036700
    104 H62        160.3520    79.3240   113.2370 hc         1 E2V       0.036700
    105 H63        162.0810    80.2340   111.6660 hc         1 E2V       0.036700
    106 H64        161.5530    79.1160   110.4160 hc         1 E2V       0.036700
    107 H65        162.2600    77.1730   111.8330 hc         1 E2V       0.038200
    108 H66        162.7110    78.2740   113.1360 hc         1 E2V       0.038200
    109 H67        164.4550    79.3070   111.6480 hc         1 E2V       0.035700
    110 H68        163.9930    78.2120   110.3460 hc         1 E2V       0.035700
    111 H69        166.0310    77.3840   111.5150 hc         1 E2V       0.031367
    112 H70        165.1560    77.3440   113.0610 hc         1 E2V       0.031367
    113 H71        164.6910    76.2390   111.7460 hc         1 E2V       0.031367
    114 H72        147.9700    68.9410   110.0990 hc         1 E2V       0.051367
    115 H73        148.5370    70.6010   109.8220 hc         1 E2V       0.051367
    116 H74        149.1950    69.6470   111.1670 hc         1 E2V       0.051367
@<TRIPOS>BOND
     1     1     2 1   
     2     1    22 1   
     3     1    43 1   
     4     1    44 1   
     5     2     3 1   
     6     2    45 1   
     7     2    46 1   
     8     3     4 1   
     9     3    47 1   
    10     3    48 1   
    11     4     5 1   
    12     4    49 1   
    13     4    50 1   
    14     5     6 1   
    15     5    51 1   
    16     5    52 1   
    17     6     7 1   
    18     6    53 1   
    19     6    54 1   
    20     7     8 1   
    21     7    55 1   
    22     7    56 1   
    23     8     9 1   
    24     8    57 1   
    25     8    58 1   
    26     9    10 1   
    27     9    59 1   
    28     9    60 1   
    29    10    40 1   
    30    10    42 2   
    31    11    12 1   
    32    11    23 1   
    33    11    39 1   
    34    11    61 1   
    35    12    24 1   
    36    13    24 1   
    37    13    25 1   
    38    13    62 1   
    39    13    63 1   
    40    14    15 1   
    41    14    64 1   
    42    14    65 1   
    43    14    66 1   
    44    15    16 1   
    45    15    67 1   
    46    15    68 1   
    47    16    17 1   
    48    16    69 1   
    49    16    70 1   
    50    17    18 1   
    51    17    71 1   
    52    17    72 1   
    53    18    19 1   
    54    18    73 1   
    55    18    74 1   
    56    19    20 1   
    57    19    75 1   
    58    19    76 1   
    59    20    21 1   
    60    20    77 1   
    61    20    78 1   
    62    21    22 1   
    63    21    79 1   
    64    21    80 1   
    65    22    81 1   
    66    22    82 1   
    67    23    40 1   
    68    23    83 1   
    69    23    84 1   
    70    24    41 2   
    71    25    26 1   
    72    25    85 1   
    73    25    86 1   
    74    26    27 1   
    75    26    87 1   
    76    26    88 1   
    77    27    28 1   
    78    27    89 1   
    79    27    90 1   
    80    28    29 1   
    81    28    91 1   
    82    28    92 1   
    83    29    30 1   
    84    29    93 1   
    85    29    94 1   
    86    30    31 1   
    87    30    95 1   
    88    30    96 1   
    89    31    32 1   
    90    31    97 1   
    91    31    98 1   
    92    32    33 1   
    93    32    99 1   
    94    32   100 1   
    95    33    34 1   
    96    33   101 1   
    97    33   102 1   
    98    34    35 1   
    99    34   103 1   
   100    34   104 1   
   101    35    36 1   
   102    35   105 1   
   103    35   106 1   
   104    36    37 1   
   105    36   107 1   
   106    36   108 1   
   107    37    38 1   
   108    37   109 1   
   109    37   110 1   
   110    38   111 1   
   111    38   112 1   
   112    38   113 1   
   113    39   114 1   
   114    39   115 1   
   115    39   116 1   
@<TRIPOS>SUBSTRUCTURE
     1 E2V         1 TEMP              0 ****  ****    0 ROOT
