@<TRIPOS>MOLECULE
E2W
   57    60     1     0     0
SMALL
bcc


@<TRIPOS>ATOM
      1 C1           6.1290    -2.5670    -0.6080 ca         1 E2W      -0.115000
      2 C10         -6.4470     2.0930    -0.0010 c3         1 E2W       0.083500
      3 C11          2.2900     2.5310     0.6450 c6         1 E2W      -0.021100
      4 C12          2.8860     3.9310     0.6690 c6         1 E2W      -0.075400
      5 C13          3.5670     4.2140    -0.6600 c6         1 E2W      -0.075400
      6 C14          4.7460     3.2710    -0.8400 c6         1 E2W      -0.133700
      7 C15          0.6380    -0.1960     0.5670 c3         1 E2W       0.189800
      8 C16         -0.4810    -0.4650     1.5580 c3         1 E2W      -0.084400
      9 C17         -1.8490    -0.4260     0.8910 c3         1 E2W      -0.073400
     10 C18         -2.9880    -0.7100     1.8700 c3         1 E2W      -0.117700
     11 C19         -4.3330    -0.6460     1.2040 ca         1 E2W       0.386600
     12 C2           4.9670    -3.0380     0.0300 ca         1 E2W       0.023400
     13 C20         -5.0370    -1.7960     0.8640 ca         1 E2W      -0.198300
     14 C21         -6.2540    -1.6820     0.2170 ca         1 E2W      -0.185000
     15 C22         -6.7410    -0.4160    -0.0790 ca         1 E2W       0.021800
     16 C23         -5.9790     0.6950     0.2990 ca         1 E2W       0.391600
     17 C3           3.9610    -2.1940     0.4050 ca         1 E2W      -0.108000
     18 C4           4.0760    -0.8060     0.1580 ca         1 E2W      -0.180300
     19 C5           5.2270    -0.3210    -0.5050 ca         1 E2W       0.422600
     20 C6           6.2460    -1.2320    -0.8700 ca         1 E2W      -0.159300
     21 C7           3.0720     0.1400     0.5260 ca         1 E2W       0.172600
     22 C8           3.2700     1.4760     0.2060 ca         1 E2W      -0.208600
     23 C9           4.4550     1.8350    -0.4860 ca         1 E2W       0.464600
     24 N10          5.3900     0.9770    -0.8220 nb         1 E2W      -0.692000
     25 N11          1.9410    -0.2630     1.2220 nu         1 E2W      -0.737600
     26 N24         -4.8140     0.5600     0.9170 nb         1 E2W      -0.638000
     27 N25         -6.1140     2.4240    -1.3830 n7         1 E2W      -0.547700
     28 O25         -6.6690     3.6850    -1.6860 oh         1 E2W      -0.449300
     29 O26         -7.9080    -0.2010    -0.7160 oh         1 E2W      -0.491100
     30 CL2          4.8170    -4.7400     0.3280 cl         1 E2W      -0.114400
     31 H1           6.9120    -3.2570    -0.8920 ha         1 E2W       0.150000
     32 H2          -7.5190     2.1970     0.2080 h1         1 E2W       0.067200
     33 H3          -5.9120     2.7800     0.6570 h1         1 E2W       0.067200
     34 H4           1.8900     2.2560     1.6240 hc         1 E2W       0.054200
     35 H5           1.4300     2.5450    -0.0340 hc         1 E2W       0.054200
     36 H6           2.0950     4.6560     0.8670 hc         1 E2W       0.045700
     37 H7           3.6120     4.0230     1.4840 hc         1 E2W       0.045700
     38 H8           2.8460     4.0770    -1.4720 hc         1 E2W       0.045200
     39 H9           3.9130     5.2470    -0.7170 hc         1 E2W       0.045200
     40 H10          5.1250     3.3040    -1.8640 hc         1 E2W       0.063700
     41 H11          5.5750     3.6050    -0.2060 hc         1 E2W       0.063700
     42 H12          0.5820    -0.9120    -0.2630 h1         1 E2W       0.041200
     43 H13          0.5000     0.7920     0.1310 h1         1 E2W       0.041200
     44 H14         -0.3300    -1.4450     2.0240 hc         1 E2W       0.046700
     45 H15         -0.4350     0.2750     2.3620 hc         1 E2W       0.046700
     46 H16         -2.0070     0.5550     0.4330 hc         1 E2W       0.049700
     47 H17         -1.8830    -1.1570     0.0760 hc         1 E2W       0.049700
     48 H18         -2.8460    -1.6970     2.3180 hc         1 E2W       0.053700
     49 H19         -2.9550     0.0170     2.6850 hc         1 E2W       0.053700
     50 H20         -4.6380    -2.7740     1.1020 ha         1 E2W       0.142000
     51 H21         -6.8180    -2.5680    -0.0520 ha         1 E2W       0.139000
     52 H22          3.0780    -2.6070     0.8740 ha         1 E2W       0.138000
     53 H23          7.1270    -0.8450    -1.3670 ha         1 E2W       0.153000
     54 H24          2.0580    -1.1610     1.6670 hn         1 E2W       0.388800
     55 H25         -6.6070     1.7820    -1.9950 hn         1 E2W       0.356800
     56 H26         -5.9020     4.2370    -1.8670 ho         1 E2W       0.418000
     57 H27         -8.3420    -1.0370    -0.9220 ho         1 E2W       0.431000
@<TRIPOS>BOND
     1     1    12 ar  
     2     1    20 ar  
     3     1    31 1   
     4     2    16 1   
     5     2    27 1   
     6     2    32 1   
     7     2    33 1   
     8     3     4 1   
     9     3    22 1   
    10     3    34 1   
    11     3    35 1   
    12     4     5 1   
    13     4    36 1   
    14     4    37 1   
    15     5     6 1   
    16     5    38 1   
    17     5    39 1   
    18     6    23 1   
    19     6    40 1   
    20     6    41 1   
    21     7     8 1   
    22     7    25 1   
    23     7    42 1   
    24     7    43 1   
    25     8     9 1   
    26     8    44 1   
    27     8    45 1   
    28     9    10 1   
    29     9    46 1   
    30     9    47 1   
    31    10    11 1   
    32    10    48 1   
    33    10    49 1   
    34    11    13 ar  
    35    11    26 ar  
    36    12    17 ar  
    37    12    30 1   
    38    13    14 ar  
    39    13    50 1   
    40    14    15 ar  
    41    14    51 1   
    42    15    16 ar  
    43    15    29 1   
    44    16    26 ar  
    45    17    18 ar  
    46    17    52 1   
    47    18    19 ar  
    48    18    21 ar  
    49    19    20 ar  
    50    19    24 ar  
    51    20    53 1   
    52    21    22 ar  
    53    21    25 1   
    54    22    23 ar  
    55    23    24 ar  
    56    25    54 1   
    57    27    28 1   
    58    27    55 1   
    59    28    56 1   
    60    29    57 1   
@<TRIPOS>SUBSTRUCTURE
     1 E2W         1 TEMP              0 ****  ****    0 ROOT
