@<TRIPOS>MOLECULE
E2W
   57    60     1     0     0
SMALL
No Charge or Current Charge


@<TRIPOS>ATOM
      1 C1           5.9590    -2.8800    -0.0950 ca         1 E2W      -0.097000
      2 C10         -7.1580     1.7640     0.5600 c3         1 E2W       0.083500
      3 C11          2.6610     2.7990     0.3900 c6         1 E2W      -0.021100
      4 C12          3.3910     4.1580     0.3140 c6         1 E2W      -0.075400
      5 C13          4.2950     4.2150    -0.9320 c6         1 E2W      -0.075400
      6 C14          5.3870     3.1250    -0.8500 c6         1 E2W      -0.133700
      7 C15          0.6880     0.0490     0.4240 c3         1 E2W       0.189800
      8 C16         -0.4750    -0.2940     1.3750 c3         1 E2W      -0.084400
      9 C17         -1.8470    -0.3020     0.6650 c3         1 E2W      -0.073400
     10 C18         -3.0190    -0.6450     1.6140 c3         1 E2W      -0.117700
     11 C19         -4.3630    -0.6580     0.9000 ca         1 E2W       0.321300
     12 C2           4.7160    -3.1570     0.4870 ca         1 E2W       0.115000
     13 C20         -4.7710    -1.7800     0.1520 ca         1 E2W      -0.115000
     14 C21         -6.0160    -1.7620    -0.5010 ca         1 E2W      -0.167000
     15 C22         -6.8130    -0.6120    -0.3840 ca         1 E2W       0.087100
     16 C23         -6.3270     0.4820     0.3880 ca         1 E2W       0.326300
     17 C3           3.7960    -2.1210     0.7080 ca         1 E2W      -0.090000
     18 C4           4.1160    -0.7860     0.3490 ca         1 E2W      -0.115000
     19 C5           5.3710    -0.5070    -0.2460 ca         1 E2W       0.292000
     20 C6           6.2790    -1.5620    -0.4590 ca         1 E2W      -0.076000
     21 C7           3.2100     0.2800     0.5560 ca         1 E2W       0.311000
     22 C8           3.5880     1.5850     0.1730 ca         1 E2W      -0.143300
     23 C9           4.8570     1.7540    -0.4180 ca         1 E2W       0.399300
     24 N10          5.7230     0.7400    -0.6180 nb         1 E2W      -0.692000
     25 N11          1.9630     0.0420     1.1540 nu         1 E2W      -0.931200
     26 N24         -5.1220     0.4550     1.0200 nb         1 E2W      -0.638000
     27 N25         -7.2810     2.5590    -0.6940 n7         1 E2W      -0.602900
     28 O25         -8.1570     3.7220    -0.4430 oh         1 E2W      -0.488300
     29 O26         -8.0330    -0.5710    -1.0140 oh         1 E2W      -0.530100
     30 Cl2          4.3060    -4.8070     0.9370 cl         1 E2W      -0.206000
     31 H1           6.6710    -3.6830    -0.2670 ha         1 E2W       0.132000
     32 H2          -8.1520     1.4720     0.9230 h1         1 E2W       0.067200
     33 H3          -6.7010     2.3770     1.3490 h1         1 E2W       0.067200
     34 H4           2.1500     2.7250     1.3600 hc         1 E2W       0.054200
     35 H5           1.8740     2.7840    -0.3760 hc         1 E2W       0.054200
     36 H6           2.6570     4.9750     0.2880 hc         1 E2W       0.045700
     37 H7           3.9960     4.3080     1.2200 hc         1 E2W       0.045700
     38 H8           3.6880     4.0690    -1.8370 hc         1 E2W       0.045200
     39 H9           4.7600     5.2070    -1.0210 hc         1 E2W       0.045200
     40 H10          5.8910     3.0440    -1.8230 hc         1 E2W       0.063700
     41 H11          6.1560     3.4410    -0.1330 hc         1 E2W       0.063700
     42 H12          0.7200    -0.6900    -0.3890 h1         1 E2W       0.041200
     43 H13          0.5050     1.0340    -0.0250 h1         1 E2W       0.041200
     44 H14         -0.2960    -1.2790     1.8240 hc         1 E2W       0.046700
     45 H15         -0.4970     0.4370     2.1930 hc         1 E2W       0.046700
     46 H16         -2.0270     0.6830     0.2150 hc         1 E2W       0.049700
     47 H17         -1.8240    -1.0290    -0.1570 hc         1 E2W       0.049700
     48 H18         -2.8370    -1.6260     2.0690 hc         1 E2W       0.053700
     49 H19         -3.0340     0.0760     2.4410 hc         1 E2W       0.053700
     50 H20         -4.1250    -2.6520     0.0830 ha         1 E2W       0.124000
     51 H21         -6.3430    -2.6220    -1.0820 ha         1 E2W       0.121000
     52 H22          2.8380    -2.3730     1.1530 ha         1 E2W       0.120000
     53 H23          7.2430    -1.3510    -0.9140 ha         1 E2W       0.135000
     54 H24          2.0070    -0.6630     1.8880 hn         1 E2W       0.444000
     55 H25         -7.7590     1.9870    -1.4150 hn         1 E2W       0.412000
     56 H26         -7.6880     4.5070    -0.8260 ho         1 E2W       0.457000
     57 H27         -8.1820    -1.4260    -1.4730 ho         1 E2W       0.470000
@<TRIPOS>BOND
     1     1    12 ar  
     2     1    20 ar  
     3     1    31 1   
     4     2    16 1   
     5     2    27 1   
     6     2    32 1   
     7     2    33 1   
     8     3     4 1   
     9     3    22 1   
    10     3    34 1   
    11     3    35 1   
    12     4     5 1   
    13     4    36 1   
    14     4    37 1   
    15     5     6 1   
    16     5    38 1   
    17     5    39 1   
    18     6    23 1   
    19     6    40 1   
    20     6    41 1   
    21     7     8 1   
    22     7    25 1   
    23     7    42 1   
    24     7    43 1   
    25     8     9 1   
    26     8    44 1   
    27     8    45 1   
    28     9    10 1   
    29     9    46 1   
    30     9    47 1   
    31    10    11 1   
    32    10    48 1   
    33    10    49 1   
    34    11    13 ar  
    35    11    26 ar  
    36    12    17 ar  
    37    12    30 1   
    38    13    14 ar  
    39    13    50 1   
    40    14    15 ar  
    41    14    51 1   
    42    15    16 ar  
    43    15    29 1   
    44    16    26 ar  
    45    17    18 ar  
    46    17    52 1   
    47    18    19 ar  
    48    18    21 ar  
    49    19    20 ar  
    50    19    24 ar  
    51    20    53 1   
    52    21    22 ar  
    53    21    25 1   
    54    22    23 ar  
    55    23    24 ar  
    56    25    54 1   
    57    27    28 1   
    58    27    55 1   
    59    28    56 1   
    60    29    57 1   
@<TRIPOS>SUBSTRUCTURE
     1 E2W         1 TEMP              0 ****  ****    0 ROOT
