@<TRIPOS>MOLECULE
E2X
   48    51     1     0     0
SMALL
No Charge or Current Charge


@<TRIPOS>ATOM
      1 C4          38.0920    -2.7930     0.3960 ca         1 E2X      -0.217000
      2 C5          37.0050    -3.1330     1.2190 ca         1 E2X       0.348900
      3 C7          38.3860    -3.4010     3.0560 ca         1 E2X       0.347900
      4 C8          39.5320    -3.0680     2.3050 ca         1 E2X       0.049000
      5 C10         41.8520    -2.5120     2.2310 ca         1 E2X       0.179000
      6 C13         44.0670    -1.4100     0.9210 ca         1 E2X       0.047000
      7 C15         43.0430    -2.2960     2.9380 ca         1 E2X      -0.177000
      8 C17         40.1810    -1.3860    -2.1030 c3         1 E2X      -0.105400
      9 C20         42.5200    -1.1900    -4.2680 c6         1 E2X      -0.073400
     10 C21         41.3050    -2.1570    -4.3740 c6         1 E2X      -0.065700
     11 C22         40.9810    -2.4390    -5.8700 c6         1 E2X       0.161800
     12 C24         43.3190    -2.0270    -6.5440 c6         1 E2X       0.158800
     13 C18         40.0410    -1.6240    -3.6270 c3         1 E2X      -0.070400
     14 N2          40.5390    -2.4480     0.1740 na         1 E2X      -0.083000
     15 N23         42.1640    -2.9530    -6.6020 n7         1 E2X      -0.862400
     16 C11         41.7470    -2.1940     0.8560 ca         1 E2X      -0.081000
     17 C3          39.3970    -2.7610     0.9360 ca         1 E2X       0.022000
     18 C12         42.8730    -1.6290     0.2120 ca         1 E2X      -0.088000
     19 C19         43.7230    -1.7290    -5.0810 c6         1 E2X      -0.075400
     20 Cl1         45.4440    -0.7100     0.0610 cl         1 E2X      -0.205000
     21 C14         44.1570    -1.7480     2.2920 ca         1 E2X       0.312000
     22 N6          37.1370    -3.4370     2.5290 nb         1 E2X      -0.667000
     23 N25         45.3140    -1.5450     3.0100 nv         1 E2X      -1.061000
     24 O9          40.7700    -3.0240     2.9060 os         1 E2X      -0.305000
     25 H1          37.8970    -2.5620    -0.6460 ha         1 E2X       0.126000
     26 H2          35.9930    -3.1640     0.8150 h4         1 E2X       0.020100
     27 H3          38.4710    -3.6400     4.1160 h4         1 E2X       0.033100
     28 H4          43.0920    -2.5500     3.9920 ha         1 E2X       0.136000
     29 H5          40.9280    -0.6060    -1.9160 hc         1 E2X       0.052700
     30 H6          39.2320    -0.9810    -1.7330 hc         1 E2X       0.052700
     31 H8          42.2390    -0.1950    -4.6420 hc         1 E2X       0.038700
     32 H9          41.5750    -3.1140    -3.9080 hc         1 E2X       0.059700
     33 H10         40.6310    -1.5130    -6.3510 h1         1 E2X       0.027700
     34 H11         40.1680    -3.1760    -5.9380 h1         1 E2X       0.027700
     35 H12         44.1720    -2.4690    -7.0800 h1         1 E2X       0.029200
     36 H13         43.0580    -1.0850    -7.0510 h1         1 E2X       0.029200
     37 H14         39.7200    -0.6810    -4.0880 hc         1 E2X       0.041700
     38 H15         39.2100    -2.3250    -3.7820 hc         1 E2X       0.041700
     39 H18         41.9050    -3.0980    -7.5870 hn         1 E2X       0.411000
     40 H20         42.8420    -1.3540    -0.8360 ha         1 E2X       0.135000
     41 H21         44.1060    -2.6450    -4.6110 hc         1 E2X       0.048200
     42 H22         44.5450    -1.0010    -5.0620 hc         1 E2X       0.048200
     43 H23         45.4130    -1.9350     3.9450 hn         1 E2X       0.459000
     44 H24         46.1630    -1.2620     2.5210 hn         1 E2X       0.459000
     45 C1          40.5330    -2.6610    -1.2950 c3         1 E2X       0.077600
     46 H7          42.8230    -1.0600    -3.2220 hc         1 E2X       0.038700
     47 H16         39.8140    -3.4530    -1.5370 h1         1 E2X       0.059700
     48 H17         41.5160    -3.0350    -1.6040 h1         1 E2X       0.059700
@<TRIPOS>BOND
     1     1     2 ar  
     2     1    17 ar  
     3     1    25 1   
     4     2    22 ar  
     5     2    26 1   
     6     3     4 ar  
     7     3    22 ar  
     8     3    27 1   
     9     4    17 ar  
    10     4    24 1   
    11     5     7 ar  
    12     5    16 ar  
    13     5    24 1   
    14     6    18 ar  
    15     6    20 1   
    16     6    21 ar  
    17     7    21 ar  
    18     7    28 1   
    19     8    13 1   
    20     8    29 1   
    21     8    30 1   
    22     8    45 1   
    23     9    10 1   
    24     9    19 1   
    25     9    31 1   
    26     9    46 1   
    27    10    11 1   
    28    10    13 1   
    29    10    32 1   
    30    11    15 1   
    31    11    33 1   
    32    11    34 1   
    33    12    15 1   
    34    12    19 1   
    35    12    35 1   
    36    12    36 1   
    37    13    37 1   
    38    13    38 1   
    39    14    16 1   
    40    14    17 1   
    41    14    45 1   
    42    15    39 1   
    43    16    18 ar  
    44    18    40 1   
    45    19    41 1   
    46    19    42 1   
    47    21    23 1   
    48    23    43 1   
    49    23    44 1   
    50    45    47 1   
    51    45    48 1   
@<TRIPOS>SUBSTRUCTURE
     1 E2X         1 TEMP              0 ****  ****    0 ROOT
