@<TRIPOS>MOLECULE
E2X
   48    51     1     0     0
SMALL
abcg2


@<TRIPOS>ATOM
      1 C4          38.0750    -2.9620     0.4040 ca         1 E2X      -0.217000
      2 C5          37.0210    -3.0070     1.3050 ca         1 E2X       0.348900
      3 C7          38.4060    -2.8500     3.0870 ca         1 E2X       0.347900
      4 C8          39.5190    -2.8160     2.2780 ca         1 E2X       0.049000
      5 C10         41.8120    -2.4400     2.0860 ca         1 E2X       0.179000
      6 C13         44.0360    -1.8110     0.6160 ca         1 E2X       0.047000
      7 C15         42.9830    -2.1040     2.7240 ca         1 E2X      -0.177000
      8 C17         40.1210    -1.6330    -2.0560 c3         1 E2X      -0.105400
      9 C20         42.4680    -1.1150    -4.0610 c6         1 E2X      -0.073400
     10 C21         41.3750    -2.1670    -4.2530 c6         1 E2X      -0.065700
     11 C22         41.1420    -2.3810    -5.7470 c6         1 E2X       0.161800
     12 C24         43.3760    -1.7020    -6.3220 c6         1 E2X       0.158800
     13 C18         40.0600    -1.7840    -3.5730 c3         1 E2X      -0.070400
     14 N2          40.5000    -2.8380     0.0950 na         1 E2X      -0.083000
     15 N23         42.3760    -2.7510    -6.4150 n7         1 E2X      -0.862400
     16 C11         41.7150    -2.4730     0.6920 ca         1 E2X      -0.081000
     17 C3          39.3810    -2.8680     0.8840 ca         1 E2X       0.022000
     18 C12         42.8500    -2.1410    -0.0280 ca         1 E2X      -0.088000
     19 C19         43.7210    -1.4540    -4.8620 c6         1 E2X      -0.075400
     20 CL1         45.4190    -1.4110    -0.3550 cl         1 E2X      -0.205000
     21 C14         44.1440    -1.7840     2.0040 ca         1 E2X       0.312000
     22 N6          37.1610    -2.9510     2.6190 nb         1 E2X      -0.667000
     23 N25         45.2940    -1.4090     2.6550 nv         1 E2X      -1.061000
     24 O9          40.7470    -2.7700     2.8700 os         1 E2X      -0.305000
     25 H1          37.8610    -2.9980    -0.6540 ha         1 E2X       0.126000
     26 H2          36.0080    -3.0870     0.9240 h4         1 E2X       0.020100
     27 H3          38.5340    -2.8090     4.1640 h4         1 E2X       0.033100
     28 H4          43.0080    -2.0980     3.8080 ha         1 E2X       0.136000
     29 H5          40.8700    -0.8880    -1.7770 hc         1 E2X       0.052700
     30 H6          39.1660    -1.2370    -1.7030 hc         1 E2X       0.052700
     31 H8          42.0800    -0.1410    -4.3870 hc         1 E2X       0.038700
     32 H9          41.7360    -3.1210    -3.8470 hc         1 E2X       0.059700
     33 H10         40.6950    -1.4610    -6.1650 h1         1 E2X       0.027700
     34 H11         40.4110    -3.1810    -5.8940 h1         1 E2X       0.027700
     35 H12         44.2670    -2.0130    -6.8730 h1         1 E2X       0.029200
     36 H13         43.0360    -0.7540    -6.7740 h1         1 E2X       0.029200
     37 H14         39.7060    -0.8410    -4.0020 hc         1 E2X       0.041700
     38 H15         39.2990    -2.5330    -3.8210 hc         1 E2X       0.041700
     39 H18         42.1830    -2.9480    -7.3880 hn         1 E2X       0.411000
     40 H20         42.8410    -2.1360    -1.1080 ha         1 E2X       0.135000
     41 H21         44.1910    -2.3520    -4.4470 hc         1 E2X       0.048200
     42 H22         44.4510    -0.6460    -4.7830 hc         1 E2X       0.048200
     43 H23         45.3540    -1.6950     3.6190 hn         1 E2X       0.459000
     44 H24         46.1580    -1.5690     2.1630 hn         1 E2X       0.459000
     45 C1          40.4030    -2.9550    -1.3460 c3         1 E2X       0.077600
     46 H7          42.7260    -1.0000    -3.0050 hc         1 E2X       0.038700
     47 H16         39.6220    -3.6800    -1.5810 h1         1 E2X       0.059700
     48 H17         41.3270    -3.4140    -1.7020 h1         1 E2X       0.059700
@<TRIPOS>BOND
     1     1     2 ar  
     2     1    17 ar  
     3     1    25 1   
     4     2    22 ar  
     5     2    26 1   
     6     3     4 ar  
     7     3    22 ar  
     8     3    27 1   
     9     4    17 ar  
    10     4    24 1   
    11     5     7 ar  
    12     5    16 ar  
    13     5    24 1   
    14     6    18 ar  
    15     6    20 1   
    16     6    21 ar  
    17     7    21 ar  
    18     7    28 1   
    19     8    13 1   
    20     8    29 1   
    21     8    30 1   
    22     8    45 1   
    23     9    10 1   
    24     9    19 1   
    25     9    31 1   
    26     9    46 1   
    27    10    11 1   
    28    10    13 1   
    29    10    32 1   
    30    11    15 1   
    31    11    33 1   
    32    11    34 1   
    33    12    15 1   
    34    12    19 1   
    35    12    35 1   
    36    12    36 1   
    37    13    37 1   
    38    13    38 1   
    39    14    16 1   
    40    14    17 1   
    41    14    45 1   
    42    15    39 1   
    43    16    18 ar  
    44    18    40 1   
    45    19    41 1   
    46    19    42 1   
    47    21    23 1   
    48    23    43 1   
    49    23    44 1   
    50    45    47 1   
    51    45    48 1   
@<TRIPOS>SUBSTRUCTURE
     1 E2X         1 TEMP              0 ****  ****    0 ROOT
