@<TRIPOS>MOLECULE
E2Y
   29    30     1     0     0
SMALL
No Charge or Current Charge


@<TRIPOS>ATOM
      1 C4          22.3480    12.7510   -14.7040 ca         1 E2Y      -0.043000
      2 C5          22.6420    12.2110   -15.9740 ca         1 E2Y      -0.185300
      3 C6          23.9620    12.2900   -16.4700 ca         1 E2Y      -0.043000
      4 C7          25.3230    14.7830   -12.5410 c6         1 E2Y       0.400000
      5 C8          23.0380    13.9420   -12.5610 c6         1 E2Y       0.210900
      6 C10         26.5620    14.8130   -11.6180 c3         1 E2Y      -0.110600
      7 C1          24.9690    12.9040   -15.7070 ca         1 E2Y      -0.146000
      8 C11         24.9070    16.2260   -12.9480 c3         1 E2Y      -0.110600
      9 C12         21.7520    10.0760   -16.8810 c1         1 E2Y       0.305900
     10 C2          24.6670    13.4470   -14.4500 ca         1 E2Y       0.171100
     11 C3          23.3580    13.3650   -13.9400 ca         1 E2Y      -0.209300
     12 C9          21.5380    11.5400   -16.7940 c3         1 E2Y       0.301700
     13 O1          25.6730    14.0350   -13.7180 os         1 E2Y      -0.360100
     14 O2          24.2640    14.1200   -11.8230 os         1 E2Y      -0.453000
     15 O3          21.4740    12.1560   -18.0920 oh         1 E2Y      -0.638000
     16 H1          21.3350    12.6920   -14.3070 ha         1 E2Y       0.113000
     17 H2          24.2090    11.8750   -17.4460 ha         1 E2Y       0.131000
     18 H3          22.5180    14.9050   -12.6630 h1         1 E2Y       0.060200
     19 H4          22.3820    13.2580   -12.0030 h1         1 E2Y       0.060200
     20 H5          26.3610    15.3890   -10.7070 hc         1 E2Y       0.056367
     21 H6          26.8520    13.8000   -11.3170 hc         1 E2Y       0.056367
     22 H7          27.4210    15.2720   -12.1210 hc         1 E2Y       0.056367
     23 H8          25.9840    12.9620   -16.0900 ha         1 E2Y       0.133000
     24 H9          24.4970    16.7730   -12.0910 hc         1 E2Y       0.056367
     25 H10         25.7700    16.7920   -13.3180 hc         1 E2Y       0.056367
     26 H11         24.1540    16.2300   -13.7440 hc         1 E2Y       0.056367
     27 H12         20.5800    11.6870   -16.2770 h1         1 E2Y       0.057700
     28 H13         21.4140    13.1220   -17.9290 ho         1 E2Y       0.458000
     29 N1          21.8930     8.9190   -16.9490 n1         1 E2Y      -0.441000
@<TRIPOS>BOND
     1     1     2 ar  
     2     1    11 ar  
     3     1    16 1   
     4     2     3 ar  
     5     2    12 1   
     6     3     7 ar  
     7     3    17 1   
     8     4     6 1   
     9     4     8 1   
    10     4    13 1   
    11     4    14 1   
    12     5    11 1   
    13     5    14 1   
    14     5    18 1   
    15     5    19 1   
    16     6    20 1   
    17     6    21 1   
    18     6    22 1   
    19     7    10 ar  
    20     7    23 1   
    21     8    24 1   
    22     8    25 1   
    23     8    26 1   
    24     9    12 1   
    25     9    29 3   
    26    10    11 ar  
    27    10    13 1   
    28    12    15 1   
    29    12    27 1   
    30    15    28 1   
@<TRIPOS>SUBSTRUCTURE
     1 E2Y         1 TEMP              0 ****  ****    0 ROOT
