@<TRIPOS>MOLECULE
E2Y
   29    30     1     0     0
SMALL
abcg2


@<TRIPOS>ATOM
      1 C4          22.3860    12.7900   -14.6960 ca         1 E2Y      -0.043000
      2 C5          22.6670    12.3030   -15.9630 ca         1 E2Y      -0.185300
      3 C6          23.9720    12.3770   -16.4470 ca         1 E2Y      -0.043000
      4 C7          25.2940    14.7460   -12.5420 c6         1 E2Y       0.400000
      5 C8          23.1100    13.8470   -12.5160 c6         1 E2Y       0.210900
      6 C10         26.5240    14.8330   -11.6640 c3         1 E2Y      -0.110600
      7 C1          24.9700    12.9410   -15.6770 ca         1 E2Y      -0.146000
      8 C11         24.8290    16.1270   -12.9930 c3         1 E2Y      -0.110600
      9 C12         21.6670    10.2220   -16.7290 c1         1 E2Y       0.305900
     10 C2          24.6750    13.4330   -14.4060 ca         1 E2Y       0.171100
     11 C3          23.3800    13.3480   -13.9040 ca         1 E2Y      -0.209300
     12 C9          21.5690    11.6880   -16.8040 c3         1 E2Y       0.301700
     13 O1          25.6770    13.9780   -13.6900 os         1 E2Y      -0.360100
     14 O2          24.3210    14.0510   -11.8200 os         1 E2Y      -0.453000
     15 O3          21.6390    12.0100   -18.1630 oh         1 E2Y      -0.638000
     16 H1          21.3740    12.7300   -14.3080 ha         1 E2Y       0.113000
     17 H2          24.2140    11.9990   -17.4320 ha         1 E2Y       0.131000
     18 H3          22.5000    14.7580   -12.5390 h1         1 E2Y       0.060200
     19 H4          22.5480    13.1040   -11.9480 h1         1 E2Y       0.060200
     20 H5          26.3130    15.4400   -10.7840 hc         1 E2Y       0.056367
     21 H6          26.8430    13.8430   -11.3360 hc         1 E2Y       0.056367
     22 H7          27.3450    15.3010   -12.2060 hc         1 E2Y       0.056367
     23 H8          25.9830    13.0100   -16.0550 ha         1 E2Y       0.133000
     24 H9          24.5020    16.7080   -12.1310 hc         1 E2Y       0.056367
     25 H10         25.6540    16.6600   -13.4640 hc         1 E2Y       0.056367
     26 H11         24.0060    16.0920   -13.7080 hc         1 E2Y       0.056367
     27 H12         20.5980    11.9540   -16.3630 h1         1 E2Y       0.057700
     28 H13         21.5310    12.9640   -18.2490 ho         1 E2Y       0.458000
     29 N1          21.7520     9.0790   -16.6460 n1         1 E2Y      -0.441000
@<TRIPOS>BOND
     1     1     2 ar  
     2     1    11 ar  
     3     1    16 1   
     4     2     3 ar  
     5     2    12 1   
     6     3     7 ar  
     7     3    17 1   
     8     4     6 1   
     9     4     8 1   
    10     4    13 1   
    11     4    14 1   
    12     5    11 1   
    13     5    14 1   
    14     5    18 1   
    15     5    19 1   
    16     6    20 1   
    17     6    21 1   
    18     6    22 1   
    19     7    10 ar  
    20     7    23 1   
    21     8    24 1   
    22     8    25 1   
    23     8    26 1   
    24     9    12 1   
    25     9    29 3   
    26    10    11 ar  
    27    10    13 1   
    28    12    15 1   
    29    12    27 1   
    30    15    28 1   
@<TRIPOS>SUBSTRUCTURE
     1 E2Y         1 TEMP              0 ****  ****    0 ROOT
