@<TRIPOS>MOLECULE
E2Z
   41    43     1     0     0
SMALL
abcg2


@<TRIPOS>ATOM
      1 N01          5.0210     3.1860    -0.6800 nc         1 E2Z      -0.669000
      2 C02          4.2840     2.1170    -0.7300 cd         1 E2Z       0.431400
      3 N03          4.8200     1.1040     0.0110 na         1 E2Z      -0.191000
      4 C04          5.9840     1.5850     0.5660 cd         1 E2Z      -0.191000
      5 C05          6.0860     2.8660     0.1270 cc         1 E2Z       0.227900
      6 C1          -4.7070    -0.5880    -0.1710 ca         1 E2Z      -0.053300
      7 N11          4.9580    -0.9980     0.9530 nb         1 E2Z      -0.194000
      8 C12          4.2790    -0.1740     0.1800 ca         1 E2Z       0.242500
      9 N13          3.1480    -0.4150    -0.4520 nb         1 E2Z      -0.210000
     10 C14          2.6150    -1.6250    -0.2960 ca         1 E2Z       0.159300
     11 C15          3.2440    -2.5780     0.4970 ca         1 E2Z      -0.234000
     12 C16          4.4290    -2.2060     1.1050 ca         1 E2Z       0.138900
     13 C17          1.3080    -1.8900    -0.9700 c3         1 E2Z      -0.138700
     14 C18          0.1720    -1.1330    -0.2810 c3         1 E2Z       0.164800
     15 N19         -1.0990    -1.4530    -0.8950 n7         1 E2Z      -0.868400
     16 C2          -5.1270     0.6870    -0.5460 ca         1 E2Z      -0.151000
     17 C20         -2.2150    -0.7950    -0.2460 c3         1 E2Z       0.161800
     18 C21         -3.5410    -1.2350    -0.8610 c3         1 E2Z      -0.036100
     19 C3          -6.1720     1.2820     0.1320 ca         1 E2Z       0.172000
     20 C4          -6.8280     0.6630     1.1790 ca         1 E2Z      -0.151000
     21 C5          -6.4060    -0.6060     1.5490 ca         1 E2Z      -0.083000
     22 C6          -5.3570    -1.2260     0.8840 ca         1 E2Z      -0.124000
     23 F7          -6.5670     2.5110    -0.2440 f          1 E2Z      -0.180000
     24 H02          3.3600     2.0020    -1.2730 h5         1 E2Z       0.072100
     25 H04          6.6090     0.9860     1.2040 h4         1 E2Z       0.175000
     26 H05          6.8660     3.5780     0.3490 h4         1 E2Z       0.041100
     27 H15          2.8290    -3.5660     0.6340 ha         1 E2Z       0.144000
     28 H16          4.9730    -2.8990     1.7350 h4         1 E2Z       0.033100
     29 H17          1.3750    -1.5780    -2.0160 hc         1 E2Z       0.069700
     30 H17A         1.0920    -2.9590    -0.9560 hc         1 E2Z       0.069700
     31 H18          0.1270    -1.4310     0.7710 h1         1 E2Z       0.040700
     32 H18A         0.3990    -0.0560    -0.2900 h1         1 E2Z       0.040700
     33 HN19        -1.0750    -1.1740    -1.8700 hn         1 E2Z       0.408000
     34 H2          -4.6440     1.2110    -1.3630 ha         1 E2Z       0.130000
     35 H20         -2.2040    -1.0660     0.8140 h1         1 E2Z       0.036200
     36 H20A        -2.1430     0.3040    -0.2810 h1         1 E2Z       0.036200
     37 H21         -3.6200    -2.3220    -0.7900 hc         1 E2Z       0.056700
     38 H21A        -3.5490    -0.9820    -1.9250 hc         1 E2Z       0.056700
     39 H4          -7.6460     1.1570     1.6870 ha         1 E2Z       0.132000
     40 H5          -6.9040    -1.1170     2.3630 ha         1 E2Z       0.117000
     41 H6          -5.0420    -2.2180     1.1830 ha         1 E2Z       0.118000
@<TRIPOS>BOND
     1     1     2 2   
     2     1     5 1   
     3     2     3 1   
     4     2    24 1   
     5     3     4 1   
     6     3     8 1   
     7     4     5 2   
     8     4    25 1   
     9     5    26 1   
    10     6    16 ar  
    11     6    18 1   
    12     6    22 ar  
    13     7     8 ar  
    14     7    12 ar  
    15     8     9 ar  
    16     9    10 ar  
    17    10    11 ar  
    18    10    13 1   
    19    11    12 ar  
    20    11    27 1   
    21    12    28 1   
    22    13    14 1   
    23    13    29 1   
    24    13    30 1   
    25    14    15 1   
    26    14    31 1   
    27    14    32 1   
    28    15    17 1   
    29    15    33 1   
    30    16    19 ar  
    31    16    34 1   
    32    17    18 1   
    33    17    35 1   
    34    17    36 1   
    35    18    37 1   
    36    18    38 1   
    37    19    20 ar  
    38    19    23 1   
    39    20    21 ar  
    40    20    39 1   
    41    21    22 ar  
    42    21    40 1   
    43    22    41 1   
@<TRIPOS>SUBSTRUCTURE
     1 E2Z         1 TEMP              0 ****  ****    0 ROOT
