@<TRIPOS>MOLECULE
E2Z
   41    43     1     0     0
SMALL
No Charge or Current Charge


@<TRIPOS>ATOM
      1 N01          6.3490     2.9350     0.4180 nc         1 E2Z      -0.669000
      2 C02          5.1680     2.3320     0.5350 cd         1 E2Z       0.431400
      3 N03          5.1150     1.2890    -0.3700 na         1 E2Z      -0.191000
      4 C04          6.3720     1.0920    -0.9080 cd         1 E2Z      -0.191000
      5 C05          7.0810     2.1780    -0.4650 cc         1 E2Z       0.227900
      6 C1          -4.9360    -0.7170    -0.2850 ca         1 E2Z      -0.053300
      7 N11          4.9690    -0.5910     1.0790 nb         1 E2Z      -0.194000
      8 C12          4.4400     0.1550     0.0740 ca         1 E2Z       0.242500
      9 N13          3.2650    -0.1580    -0.5250 nb         1 E2Z      -0.210000
     10 C14          2.5920    -1.2520    -0.1140 ca         1 E2Z       0.159300
     11 C15          3.0850    -2.0600     0.9180 ca         1 E2Z      -0.234000
     12 C16          4.3020    -1.6840     1.4960 ca         1 E2Z       0.138900
     13 C17          1.2770    -1.5620    -0.8070 c3         1 E2Z      -0.138700
     14 C18          0.0800    -0.9490    -0.0620 c3         1 E2Z       0.164800
     15 N19         -1.1710    -1.2950    -0.7580 n7         1 E2Z      -0.868400
     16 C2          -5.4930     0.5100    -0.6960 ca         1 E2Z      -0.151000
     17 C20         -2.4020    -0.7810    -0.1250 c3         1 E2Z       0.161800
     18 C21         -3.6470    -1.2270    -0.9160 c3         1 E2Z      -0.036100
     19 C3          -6.6780     0.9780    -0.1070 ca         1 E2Z       0.172000
     20 C4          -7.3180     0.2310     0.8940 ca         1 E2Z      -0.151000
     21 C5          -6.7680    -0.9930     1.3100 ca         1 E2Z      -0.083000
     22 C6          -5.5800    -1.4640     0.7220 ca         1 E2Z      -0.124000
     23 F7          -7.2060     2.1560    -0.5060 f          1 E2Z      -0.180000
     24 H02          4.3520     2.5830     1.2040 h5         1 E2Z       0.072100
     25 H04          6.6530     0.2570    -1.5400 h4         1 E2Z       0.175000
     26 H05          8.1070     2.4420    -0.6900 h4         1 E2Z       0.041100
     27 H15          2.5480    -2.9420     1.2580 ha         1 E2Z       0.144000
     28 H16          4.7510    -2.2610     2.3030 h4         1 E2Z       0.033100
     29 H17          1.2940    -1.1870    -1.8380 hc         1 E2Z       0.069700
     30 H17A         1.1410    -2.6480    -0.8740 hc         1 E2Z       0.069700
     31 H18          0.0650    -1.3310     0.9680 h1         1 E2Z       0.040700
     32 H18A         0.2060     0.1420    -0.0130 h1         1 E2Z       0.040700
     33 HN19        -1.1210    -0.9170    -1.7120 hn         1 E2Z       0.408000
     34 H2          -5.0090     1.1030    -1.4680 ha         1 E2Z       0.130000
     35 H20         -2.4850    -1.1520     0.9060 h1         1 E2Z       0.036200
     36 H20A        -2.3810     0.3170    -0.0820 h1         1 E2Z       0.036200
     37 H21         -3.6640    -2.3230    -0.9690 hc         1 E2Z       0.056700
     38 H21A        -3.5670    -0.8700    -1.9490 hc         1 E2Z       0.056700
     39 H4          -8.2350     0.6010     1.3440 ha         1 E2Z       0.132000
     40 H5          -7.2590    -1.5760     2.0870 ha         1 E2Z       0.117000
     41 H6          -5.1580    -2.4120     1.0500 ha         1 E2Z       0.118000
@<TRIPOS>BOND
     1     1     2 2   
     2     1     5 1   
     3     2     3 1   
     4     2    24 1   
     5     3     4 1   
     6     3     8 1   
     7     4     5 2   
     8     4    25 1   
     9     5    26 1   
    10     6    16 ar  
    11     6    18 1   
    12     6    22 ar  
    13     7     8 ar  
    14     7    12 ar  
    15     8     9 ar  
    16     9    10 ar  
    17    10    11 ar  
    18    10    13 1   
    19    11    12 ar  
    20    11    27 1   
    21    12    28 1   
    22    13    14 1   
    23    13    29 1   
    24    13    30 1   
    25    14    15 1   
    26    14    31 1   
    27    14    32 1   
    28    15    17 1   
    29    15    33 1   
    30    16    19 ar  
    31    16    34 1   
    32    17    18 1   
    33    17    35 1   
    34    17    36 1   
    35    18    37 1   
    36    18    38 1   
    37    19    20 ar  
    38    19    23 1   
    39    20    21 ar  
    40    20    39 1   
    41    21    22 ar  
    42    21    40 1   
    43    22    41 1   
@<TRIPOS>SUBSTRUCTURE
     1 E2Z         1 TEMP              0 ****  ****    0 ROOT
