@<TRIPOS>MOLECULE
E30
   19    20     1     0     0
SMALL
No Charge or Current Charge


@<TRIPOS>ATOM
      1 N11          4.2270     0.0010     0.0240 nv         1 E30      -1.087000
      2 C12          2.8620     0.0100     0.0090 ca         1 E30       0.338000
      3 C13          2.1680     1.2250    -0.0070 ca         1 E30      -0.196500
      4 C14          0.7630     1.2390    -0.0230 ca         1 E30      -0.024000
      5 C15          0.0340     0.0280    -0.0240 ca         1 E30      -0.211500
      6 C16          0.7460    -1.1930    -0.0070 ca         1 E30      -0.024000
      7 C17          2.1520    -1.1960     0.0090 ca         1 E30      -0.196500
      8 C18         -1.4350     0.0510    -0.0410 cc         1 E30       0.482000
      9 N19         -2.2630    -1.0340    -0.0440 na         1 E30      -0.221700
     10 N20         -3.5630    -0.6430    -0.0620 nc         1 E30      -0.209800
     11 N21         -3.5090     0.6610    -0.0690 nd         1 E30      -0.041000
     12 N22         -2.2110     1.1170    -0.0570 nd         1 E30      -0.400000
     13 H11          4.7350     0.8660    -0.1510 hn         1 E30       0.467000
     14 H13          2.7140     2.1650    -0.0060 ha         1 E30       0.118500
     15 H17          2.6860    -2.1420     0.0230 ha         1 E30       0.118500
     16 H14          0.2450     2.1960    -0.0360 ha         1 E30       0.121000
     17 H16          0.2220    -2.1460    -0.0070 ha         1 E30       0.121000
     18 H19         -1.9890    -2.0070    -0.0340 hn         1 E30       0.383000
     19 H2           4.7260    -0.8710    -0.1390 hn         1 E30       0.467000
@<TRIPOS>BOND
     1     1     2 1   
     2     1    13 1   
     3     1    19 1   
     4     2     3 ar  
     5     2     7 ar  
     6     3     4 ar  
     7     3    14 1   
     8     4     5 ar  
     9     4    16 1   
    10     5     6 ar  
    11     5     8 1   
    12     6     7 ar  
    13     6    17 1   
    14     7    15 1   
    15     8     9 1   
    16     8    12 2   
    17     9    10 1   
    18     9    18 1   
    19    10    11 2   
    20    11    12 1   
@<TRIPOS>SUBSTRUCTURE
     1 E30         1 TEMP              0 ****  ****    0 ROOT
