@<TRIPOS>MOLECULE
E30
   19    20     1     0     0
SMALL
abcg2


@<TRIPOS>ATOM
      1 N11          4.2180     0.0130     0.0780 nv         1 E30      -1.087000
      2 C12          2.8570     0.0110     0.0190 ca         1 E30       0.338000
      3 C13          2.1320     1.2140     0.0040 ca         1 E30      -0.196500
      4 C14          0.7550     1.2070    -0.0130 ca         1 E30      -0.024000
      5 C15          0.0380     0.0070    -0.0170 ca         1 E30      -0.211500
      6 C16          0.7570    -1.1910    -0.0030 ca         1 E30      -0.024000
      7 C17          2.1360    -1.1940     0.0150 ca         1 E30      -0.196500
      8 C18         -1.4100     0.0370    -0.0420 cc         1 E30       0.482000
      9 N19         -2.2350    -1.0170    -0.0390 na         1 E30      -0.221700
     10 N20         -3.4900    -0.5920    -0.0710 nc         1 E30      -0.209800
     11 N21         -3.4340     0.6790    -0.0910 nd         1 E30      -0.041000
     12 N22         -2.1750     1.1100    -0.0740 nd         1 E30      -0.400000
     13 H11          4.6970     0.8550    -0.1950 hn         1 E30       0.467000
     14 H13          2.6630     2.1580     0.0040 ha         1 E30       0.118500
     15 H17          2.6680    -2.1370     0.0240 ha         1 E30       0.118500
     16 H14          0.2230     2.1490    -0.0280 ha         1 E30       0.121000
     17 H16          0.2480    -2.1470    -0.0090 ha         1 E30       0.121000
     18 H19         -2.0370    -2.0060    -0.0170 hn         1 E30       0.383000
     19 H2           4.7000    -0.8290    -0.1890 hn         1 E30       0.467000
@<TRIPOS>BOND
     1     1     2 1   
     2     1    13 1   
     3     1    19 1   
     4     2     3 ar  
     5     2     7 ar  
     6     3     4 ar  
     7     3    14 1   
     8     4     5 ar  
     9     4    16 1   
    10     5     6 ar  
    11     5     8 1   
    12     6     7 ar  
    13     6    17 1   
    14     7    15 1   
    15     8     9 1   
    16     8    12 2   
    17     9    10 1   
    18     9    18 1   
    19    10    11 2   
    20    11    12 1   
@<TRIPOS>SUBSTRUCTURE
     1 E30         1 TEMP              0 ****  ****    0 ROOT
