@<TRIPOS>MOLECULE
E31
   46    48     1     0     0
SMALL
abcg2


@<TRIPOS>ATOM
      1 C            3.6860    -4.0020     1.3690 c3         1 E31      -0.085100
      2 N            2.2450    -1.4240     0.5660 nb         1 E31      -0.189000
      3 O           -3.9750     2.5600     1.1470 o          1 E31      -0.592100
      4 C12         -5.0600     2.0130     1.2590 c          1 E31       0.605100
      5 N4          -5.9170     2.2740     2.2570 nt         1 E31      -0.614000
      6 C8          -4.4580     0.0900    -0.2320 ca         1 E31      -0.070300
      7 C9          -3.5850     0.4850    -1.2410 ca         1 E31      -0.093500
      8 C10         -2.5620    -0.3500    -1.6640 ca         1 E31      -0.096000
      9 C7          -4.2780    -1.1630     0.3450 ca         1 E31      -0.093500
     10 C6          -3.2530    -1.9990    -0.0760 ca         1 E31      -0.096000
     11 C5          -2.3830    -1.6050    -1.0870 ca         1 E31      -0.078300
     12 C4           0.0070    -2.1680    -0.7700 ca         1 E31       0.136300
     13 C20          0.5360    -3.0130     0.1950 ca         1 E31      -0.217000
     14 C2           1.6850    -2.5950     0.8550 ca         1 E31       0.137300
     15 C1           2.3650    -3.4370     1.8890 c3         1 E31      -0.132700
     16 N1           0.5860    -1.0070    -1.0530 nb         1 E31      -0.186000
     17 C3           1.6750    -0.6810    -0.3730 cp         1 E31       0.204500
     18 C13          2.3060     0.6210    -0.6890 cp         1 E31      -0.141500
     19 C18          3.5010     0.9850    -0.0710 ca         1 E31      -0.061000
     20 C17          4.0810     2.2040    -0.3730 ca         1 E31       0.103000
     21 CL           5.5700     2.6430     0.4000 cl         1 E31      -0.207000
     22 C14          1.7160     1.4940    -1.6020 ca         1 E31      -0.063000
     23 C15          2.3120     2.7110    -1.8900 ca         1 E31      -0.118000
     24 C16          3.5020     3.0800    -1.2790 ca         1 E31      -0.086000
     25 H1           4.1890    -4.5750     2.1470 hc         1 E31       0.040700
     26 H2           3.5250    -4.6640     0.5170 hc         1 E31       0.040700
     27 H3           4.3550    -3.2020     1.0540 hc         1 E31       0.040700
     28 H4          -5.6860     2.9530     2.9650 hn         1 E31       0.312500
     29 H5          -6.7960     1.7970     2.3420 hn         1 E31       0.312500
     30 H6          -6.3830     0.4120     0.6500 hc         1 E31       0.061200
     31 H7          -5.9650     1.5650    -0.6000 hc         1 E31       0.061200
     32 H8          -3.7100     1.4530    -1.7110 ha         1 E31       0.113000
     33 H9          -1.8980    -0.0240    -2.4540 ha         1 E31       0.115000
     34 H10         -4.9500    -1.4970     1.1270 ha         1 E31       0.113000
     35 H11         -3.1350    -2.9730     0.3840 ha         1 E31       0.115000
     36 H12         -1.5140    -3.5480    -1.3520 hc         1 E31       0.064200
     37 H13         -1.0640    -2.3810    -2.5900 hc         1 E31       0.064200
     38 H14          0.0720    -3.9620     0.4270 ha         1 E31       0.132000
     39 H15          1.7060    -4.2500     2.1990 hc         1 E31       0.057700
     40 H16          2.5550    -2.8220     2.7710 hc         1 E31       0.057700
     41 H17          3.9690     0.3150     0.6370 ha         1 E31       0.149000
     42 H18          0.7870     1.2180    -2.0810 ha         1 E31       0.138000
     43 H19          1.8470     3.3850    -2.5970 ha         1 E31       0.119000
     44 H20          3.9670     4.0300    -1.5040 ha         1 E31       0.128000
     45 C19         -1.2520    -2.5030    -1.5210 c3         1 E31      -0.082400
     46 C11         -5.5570     0.9960     0.2410 c3         1 E31      -0.115100
@<TRIPOS>BOND
     1     1    15 1   
     2     1    25 1   
     3     1    26 1   
     4     1    27 1   
     5     2    14 ar  
     6     2    17 ar  
     7     3     4 2   
     8     4     5 1   
     9     4    46 1   
    10     5    28 1   
    11     5    29 1   
    12     6     7 ar  
    13     6     9 ar  
    14     6    46 1   
    15     7     8 ar  
    16     7    32 1   
    17     8    11 ar  
    18     8    33 1   
    19     9    10 ar  
    20     9    34 1   
    21    10    11 ar  
    22    10    35 1   
    23    11    45 1   
    24    12    13 ar  
    25    12    16 ar  
    26    12    45 1   
    27    13    14 ar  
    28    13    38 1   
    29    14    15 1   
    30    15    39 1   
    31    15    40 1   
    32    16    17 ar  
    33    17    18 1   
    34    18    19 ar  
    35    18    22 ar  
    36    19    20 ar  
    37    19    41 1   
    38    20    21 1   
    39    20    24 ar  
    40    22    23 ar  
    41    22    42 1   
    42    23    24 ar  
    43    23    43 1   
    44    24    44 1   
    45    30    46 1   
    46    31    46 1   
    47    36    45 1   
    48    37    45 1   
@<TRIPOS>SUBSTRUCTURE
     1 E31         1 TEMP              0 ****  ****    0 ROOT
