@<TRIPOS>MOLECULE
E31
   46    48     1     0     0
SMALL
No Charge or Current Charge


@<TRIPOS>ATOM
      1 C            2.7500    -4.1250     1.8950 c3         1 E31      -0.085100
      2 N            2.3000    -1.0680     0.5650 nb         1 E31      -0.189000
      3 O           -5.0020     2.4770     1.6970 o          1 E31      -0.592100
      4 C12         -5.5910     1.4090     1.6690 c          1 E31       0.605100
      5 N4          -5.9840     0.8190     2.8190 nt         1 E31      -0.614000
      6 C8          -4.6870    -0.0400    -0.1830 ca         1 E31      -0.070300
      7 C9          -3.8310     0.6300    -1.0770 ca         1 E31      -0.093500
      8 C10         -2.6910    -0.0140    -1.5870 ca         1 E31      -0.096000
      9 C7          -4.3870    -1.3620     0.1970 ca         1 E31      -0.093500
     10 C6          -3.2470    -2.0070    -0.3130 ca         1 E31      -0.096000
     11 C5          -2.3940    -1.3370    -1.2100 ca         1 E31      -0.078300
     12 C4           0.0730    -1.7200    -0.9100 ca         1 E31       0.136300
     13 C20          0.3820    -2.4660     0.2390 ca         1 E31      -0.217000
     14 C2           1.5270    -2.0980     0.9630 ca         1 E31       0.137300
     15 C1           1.9500    -2.8470     2.2170 c3         1 E31      -0.132700
     16 N1           0.8510    -0.6900    -1.2980 nb         1 E31      -0.186000
     17 C3           1.9380    -0.3950    -0.5510 cp         1 E31       0.204500
     18 C13          2.8020     0.7620    -0.9880 cp         1 E31      -0.141500
     19 C18          3.9720     1.1300    -0.2630 ca         1 E31      -0.061000
     20 C17          4.7760     2.2080    -0.6710 ca         1 E31       0.103000
     21 Cl           6.2130     2.6290     0.2520 cl         1 E31      -0.207000
     22 C14          2.4840     1.5340    -2.1410 ca         1 E31      -0.063000
     23 C15          3.2910     2.6120    -2.5460 ca         1 E31      -0.118000
     24 C16          4.4370     2.9510    -1.8110 ca         1 E31      -0.086000
     25 H1           3.0380    -4.6410     2.8190 hc         1 E31       0.040700
     26 H2           2.1520    -4.8140     1.2880 hc         1 E31       0.040700
     27 H3           3.6640    -3.8790     1.3400 hc         1 E31       0.040700
     28 H4          -5.7860     1.2720     3.6990 hn         1 E31       0.312500
     29 H5          -6.4670    -0.0670     2.7950 hn         1 E31       0.312500
     30 H6          -6.7010    -0.0860     0.5670 hc         1 E31       0.061200
     31 H7          -6.2940     1.3840    -0.3620 hc         1 E31       0.061200
     32 H8          -4.0460     1.6540    -1.3760 ha         1 E31       0.113000
     33 H9          -2.0350     0.5170    -2.2740 ha         1 E31       0.115000
     34 H10         -5.0370    -1.8930     0.8900 ha         1 E31       0.113000
     35 H11         -3.0270    -3.0280    -0.0080 ha         1 E31       0.115000
     36 H12         -1.3100    -3.1140    -1.7920 hc         1 E31       0.064200
     37 H13         -0.9810    -1.7260    -2.7950 hc         1 E31       0.064200
     38 H14         -0.2440    -3.2960     0.5580 ha         1 E31       0.132000
     39 H15          1.0640    -3.1210     2.8030 hc         1 E31       0.057700
     40 H16          2.5570    -2.2010     2.8640 hc         1 E31       0.057700
     41 H17          4.2700     0.5800     0.6260 ha         1 E31       0.149000
     42 H18          1.6030     1.3030    -2.7360 ha         1 E31       0.138000
     43 H19          3.0250     3.1860    -3.4310 ha         1 E31       0.119000
     44 H20          5.0620     3.7840    -2.1240 ha         1 E31       0.128000
     45 C19         -1.1520    -2.0290    -1.7550 c3         1 E31      -0.082400
     46 C11         -5.9220     0.6610     0.3730 c3         1 E31      -0.115100
@<TRIPOS>BOND
     1     1    15 1   
     2     1    25 1   
     3     1    26 1   
     4     1    27 1   
     5     2    14 ar  
     6     2    17 ar  
     7     3     4 2   
     8     4     5 1   
     9     4    46 1   
    10     5    28 1   
    11     5    29 1   
    12     6     7 ar  
    13     6     9 ar  
    14     6    46 1   
    15     7     8 ar  
    16     7    32 1   
    17     8    11 ar  
    18     8    33 1   
    19     9    10 ar  
    20     9    34 1   
    21    10    11 ar  
    22    10    35 1   
    23    11    45 1   
    24    12    13 ar  
    25    12    16 ar  
    26    12    45 1   
    27    13    14 ar  
    28    13    38 1   
    29    14    15 1   
    30    15    39 1   
    31    15    40 1   
    32    16    17 ar  
    33    17    18 1   
    34    18    19 ar  
    35    18    22 ar  
    36    19    20 ar  
    37    19    41 1   
    38    20    21 1   
    39    20    24 ar  
    40    22    23 ar  
    41    22    42 1   
    42    23    24 ar  
    43    23    43 1   
    44    24    44 1   
    45    30    46 1   
    46    31    46 1   
    47    36    45 1   
    48    37    45 1   
@<TRIPOS>SUBSTRUCTURE
     1 E31         1 TEMP              0 ****  ****    0 ROOT
