@<TRIPOS>MOLECULE
E32
   42    46     1     0     0
SMALL
No Charge or Current Charge


@<TRIPOS>ATOM
      1 F25         -1.6920    -2.9070     0.8510 f          1 E32      -0.170000
      2 C24         -0.8940    -1.8550     0.5440 ca         1 E32       0.122000
      3 C23          0.4930    -2.0560     0.5260 ca         1 E32      -0.109000
      4 C8          -1.4420    -0.5940     0.2050 ca         1 E32       0.302000
      5 N6          -2.8410    -0.3510     0.1940 nh         1 E32      -0.794400
      6 C5          -3.7380    -0.6220     1.3490 c5         1 E32       0.204800
      7 C7          -3.5630     0.3140    -0.9300 c5         1 E32       0.195800
      8 C2          -4.9070     0.7370    -0.2440 c5         1 E32       0.129500
      9 N1          -6.0430     0.9790    -1.1570 n8         1 E32      -0.989200
     10 C4          -5.1370    -0.4710     0.6970 c5         1 E32      -0.102400
     11 C9          -0.5670     0.4530    -0.1320 ca         1 E32      -0.189000
     12 C10          0.8380     0.2810    -0.1270 ca         1 E32       0.097600
     13 N11          1.7350     1.3840    -0.4610 n          1 E32      -0.283000
     14 C12          1.1800     2.7400    -0.6010 cx         1 E32       0.029700
     15 C14          0.4510     3.4480     0.5220 cx         1 E32      -0.123400
     16 C13          1.7850     3.9650     0.0550 cx         1 E32      -0.123400
     17 C15          3.1330     1.1800    -0.6500 c          1 E32       0.505500
     18 O16          3.8830     2.0720    -1.0420 o          1 E32      -0.483000
     19 C17          3.5830    -0.2020    -0.3150 cc         1 E32       0.329000
     20 N21          2.7480    -1.1910     0.1190 na         1 E32      -0.016300
     21 C22          1.3660    -1.0010     0.1860 ca         1 E32      -0.059200
     22 C20          3.4450    -2.3560     0.3380 cc         1 E32      -0.208000
     23 N18          4.8270    -0.6890    -0.3670 nd         1 E32      -0.598000
     24 C19          4.7400    -2.0130     0.0360 cd         1 E32       0.232900
     25 H1           0.8690    -3.0450     0.7690 ha         1 E32       0.142000
     26 H2          -3.6050    -1.6240     1.7790 h1         1 E32       0.056200
     27 H3          -3.5870     0.1200     2.1460 h1         1 E32       0.056200
     28 H4          -3.0330     1.1880    -1.3320 h1         1 E32       0.065700
     29 H5          -3.7390    -0.3920    -1.7540 h1         1 E32       0.065700
     30 H6          -4.7630     1.6530     0.3460 h1         1 E32       0.021700
     31 H7          -6.8760     1.2100    -0.6020 hn         1 E32       0.399500
     32 H8          -5.8710     1.8390    -1.6910 hn         1 E32       0.399500
     33 H10         -5.4110    -1.3740     0.1380 hc         1 E32       0.062700
     34 H11         -5.9200    -0.2910     1.4410 hc         1 E32       0.062700
     35 H12         -1.0040     1.4080    -0.3910 ha         1 E32       0.132000
     36 H13          0.7920     2.8470    -1.6150 h1         1 E32       0.093700
     37 H14         -0.4360     4.0220     0.2640 hc         1 E32       0.082950
     38 H15          0.4100     2.9560     1.4910 hc         1 E32       0.082950
     39 H16          2.6340     3.8300     0.7200 hc         1 E32       0.082950
     40 H17          1.8010     4.8880    -0.5200 hc         1 E32       0.082950
     41 H18          3.0180    -3.2910     0.6710 h4         1 E32       0.164000
     42 H19          5.6170    -2.6480     0.0810 h4         1 E32       0.046100
@<TRIPOS>BOND
     1     1     2 1   
     2     2     3 ar  
     3     2     4 ar  
     4     3    21 ar  
     5     3    25 1   
     6     4     5 1   
     7     4    11 ar  
     8     5     6 1   
     9     5     7 1   
    10     6    10 1   
    11     6    26 1   
    12     6    27 1   
    13     7     8 1   
    14     7    28 1   
    15     7    29 1   
    16     8     9 1   
    17     8    10 1   
    18     8    30 1   
    19     9    31 1   
    20     9    32 1   
    21    10    33 1   
    22    10    34 1   
    23    11    12 ar  
    24    11    35 1   
    25    12    13 1   
    26    12    21 ar  
    27    13    14 1   
    28    13    17 1   
    29    14    15 1   
    30    14    16 1   
    31    14    36 1   
    32    15    16 1   
    33    15    37 1   
    34    15    38 1   
    35    16    39 1   
    36    16    40 1   
    37    17    18 2   
    38    17    19 1   
    39    19    20 1   
    40    19    23 2   
    41    20    21 1   
    42    20    22 1   
    43    22    24 2   
    44    22    41 1   
    45    23    24 1   
    46    24    42 1   
@<TRIPOS>SUBSTRUCTURE
     1 E32         1 TEMP              0 ****  ****    0 ROOT
