@<TRIPOS>MOLECULE
E32
   42    46     1     0     0
SMALL
abcg2


@<TRIPOS>ATOM
      1 F25         -1.6200    -3.0950     0.6310 f          1 E32      -0.170000
      2 C24         -0.8730    -2.0120     0.3700 ca         1 E32       0.122000
      3 C23          0.4830    -2.1030     0.5430 ca         1 E32      -0.109000
      4 C8          -1.5040    -0.8520    -0.1030 ca         1 E32       0.302000
      5 N6          -2.8750    -0.8370    -0.2650 nh         1 E32      -0.794400
      6 C5          -3.7250    -1.1970     0.8860 c5         1 E32       0.204800
      7 C7          -3.5430     0.2100    -1.0210 c5         1 E32       0.195800
      8 C2          -4.3480     0.9740     0.0220 c5         1 E32       0.129500
      9 N1          -5.4080     1.7660    -0.5670 n8         1 E32      -0.989200
     10 C4          -4.8750    -0.1840     0.8630 c5         1 E32      -0.102400
     11 C9          -0.6690     0.2250    -0.4000 ca         1 E32      -0.189000
     12 C10          0.7140     0.1720    -0.2340 ca         1 E32       0.097600
     13 N11          1.5210     1.2800    -0.5230 n          1 E32      -0.283000
     14 C12          0.9110     2.5350    -0.8740 cx         1 E32       0.029700
     15 C14         -0.0120     3.1970     0.1060 cx         1 E32      -0.123400
     16 C13          1.3360     3.7760    -0.1600 cx         1 E32      -0.123400
     17 C15          2.8920     1.1970    -0.5980 c          1 E32       0.505500
     18 O16          3.5910     2.0950    -1.0240 o          1 E32      -0.483000
     19 C17          3.4610    -0.0460    -0.0910 cc         1 E32       0.329000
     20 N21          2.6710    -1.0670     0.3340 na         1 E32      -0.016300
     21 C22          1.2840    -1.0130     0.2330 ca         1 E32      -0.059200
     22 C20          3.4990    -2.0580     0.7650 cc         1 E32      -0.208000
     23 N18          4.7350    -0.3270     0.0430 nd         1 E32      -0.598000
     24 C19          4.7680    -1.5720     0.5750 cd         1 E32       0.232900
     25 H1           0.9110    -3.0340     0.8900 ha         1 E32       0.142000
     26 H2          -4.1000    -2.2180     0.8140 h1         1 E32       0.056200
     27 H3          -3.1530    -1.1180     1.8140 h1         1 E32       0.056200
     28 H4          -2.8490     0.8260    -1.5900 h1         1 E32       0.065700
     29 H5          -4.2330    -0.2390    -1.7450 h1         1 E32       0.065700
     30 H6          -3.6460     1.5660     0.6310 h1         1 E32       0.021700
     31 H7          -5.9580     2.1930     0.1680 hn         1 E32       0.399500
     32 H8          -5.0080     2.5390    -1.0850 hn         1 E32       0.399500
     33 H10         -5.7510    -0.6040     0.3620 hc         1 E32       0.062700
     34 H11         -5.1760     0.1130     1.8680 hc         1 E32       0.062700
     35 H12         -1.1080     1.1370    -0.7670 ha         1 E32       0.132000
     36 H13          0.6620     2.6300    -1.9260 h1         1 E32       0.093700
     37 H14         -0.8910     3.6840    -0.2970 hc         1 E32       0.082950
     38 H15         -0.1680     2.7100     1.0610 hc         1 E32       0.082950
     39 H16          2.0770     3.6850     0.6220 hc         1 E32       0.082950
     40 H17          1.4160     4.6780    -0.7520 hc         1 E32       0.082950
     41 H18          3.1440    -2.9950     1.1560 h4         1 E32       0.164000
     42 H19          5.6960    -2.0730     0.8020 h4         1 E32       0.046100
@<TRIPOS>BOND
     1     1     2 1   
     2     2     3 ar  
     3     2     4 ar  
     4     3    21 ar  
     5     3    25 1   
     6     4     5 1   
     7     4    11 ar  
     8     5     6 1   
     9     5     7 1   
    10     6    10 1   
    11     6    26 1   
    12     6    27 1   
    13     7     8 1   
    14     7    28 1   
    15     7    29 1   
    16     8     9 1   
    17     8    10 1   
    18     8    30 1   
    19     9    31 1   
    20     9    32 1   
    21    10    33 1   
    22    10    34 1   
    23    11    12 ar  
    24    11    35 1   
    25    12    13 1   
    26    12    21 ar  
    27    13    14 1   
    28    13    17 1   
    29    14    15 1   
    30    14    16 1   
    31    14    36 1   
    32    15    16 1   
    33    15    37 1   
    34    15    38 1   
    35    16    39 1   
    36    16    40 1   
    37    17    18 2   
    38    17    19 1   
    39    19    20 1   
    40    19    23 2   
    41    20    21 1   
    42    20    22 1   
    43    22    24 2   
    44    22    41 1   
    45    23    24 1   
    46    24    42 1   
@<TRIPOS>SUBSTRUCTURE
     1 E32         1 TEMP              0 ****  ****    0 ROOT
