@<TRIPOS>MOLECULE
E33
   53    56     1     0     0
SMALL
abcg2


@<TRIPOS>ATOM
      1 C1         -29.7500   -14.8990    58.6150 c3         1 E33      -0.062100
      2 C2         -30.8310   -15.2950    59.6060 c3         1 E33      -0.332400
      3 C3         -33.7880   -14.2970    58.1540 c6         1 E33       0.231800
      4 C4         -33.4480   -12.9850    57.4580 c6         1 E33      -0.090400
      5 C5         -33.3660   -13.1720    55.9440 c6         1 E33      -0.064400
      6 C6         -32.3530   -14.2610    55.5880 c6         1 E33      -0.063700
      7 C12        -32.2390   -16.2450    51.6370 c6         1 E33      -0.070100
      8 C13        -33.3900   -15.3480    52.1060 c6         1 E33       0.163800
      9 C14        -32.2440   -14.5320    54.0890 c6         1 E33       0.165800
     10 C15        -31.1320   -18.4290    52.1380 ca         1 E33      -0.148000
     11 C16        -30.8670   -19.5370    52.9410 ca         1 E33       0.139100
     12 C17        -31.5090   -19.6560    54.1720 ca         1 E33      -0.187000
     13 S1         -32.1390   -16.2780    58.8790 s6         1 E33       1.255100
     14 O1         -31.5340   -17.4100    58.2050 o          1 E33      -0.551500
     15 O2         -33.0880   -16.5380    59.9440 o          1 E33      -0.551500
     16 N1         -32.8470   -15.3540    57.7510 n3         1 E33      -0.817500
     17 C7         -32.6500   -15.5840    56.3090 c6         1 E33       0.255500
     18 C8         -33.8600   -16.2890    55.6960 c6         1 E33      -0.078400
     19 C9         -33.7000   -16.4910    54.1890 c6         1 E33       0.230800
     20 C10        -32.6770   -17.5510    53.7770 ca         1 E33      -0.150300
     21 C11        -32.0250   -17.4420    52.5370 ca         1 E33      -0.041300
     22 N2         -33.4390   -15.1890    53.5570 n3         1 E33      -0.710600
     23 C18        -32.4020   -18.6640    54.5670 ca         1 E33      -0.055000
     24 C19        -29.6670   -21.5840    53.2420 c3         1 E33       0.148900
     25 H1         -28.9910   -14.3090    59.1310 hc         1 E33       0.046367
     26 H2         -29.2700   -15.7760    58.1840 hc         1 E33       0.046367
     27 H3         -30.1600   -14.2900    57.8100 hc         1 E33       0.046367
     28 H4         -31.3260   -14.4280    60.0450 h1         1 E33       0.096200
     29 H5         -30.4440   -15.9140    60.4170 h1         1 E33       0.096200
     30 H6         -33.7450   -14.1860    59.2350 h1         1 E33       0.053700
     31 H7         -34.8070   -14.6070    57.9020 h1         1 E33       0.053700
     32 H8         -32.4890   -12.6190    57.8380 hc         1 E33       0.046200
     33 H9         -34.2080   -12.2450    57.7170 hc         1 E33       0.046200
     34 H10        -33.0680   -12.2360    55.4630 hc         1 E33       0.052200
     35 H11        -34.3510   -13.4310    55.5480 hc         1 E33       0.052200
     36 H12        -31.3690   -13.9190    55.9240 hc         1 E33       0.046700
     37 H13        -32.4250   -16.5790    50.6130 hc         1 E33       0.054200
     38 H14        -31.3100   -15.6680    51.6010 hc         1 E33       0.054200
     39 H15        -33.3090   -14.3630    51.6420 h1         1 E33       0.055700
     40 H16        -34.3450   -15.7800    51.7940 h1         1 E33       0.055700
     41 H17        -31.3340   -15.1270    53.9170 h1         1 E33       0.040200
     42 H18        -32.1150   -13.5880    53.5530 h1         1 E33       0.040200
     43 H19        -30.6230   -18.3470    51.1840 ha         1 E33       0.124000
     44 H20        -31.3260   -20.4980    54.8230 ha         1 E33       0.122000
     45 H21        -31.7820   -16.2300    56.2060 h1         1 E33       0.081700
     46 H22        -34.7580   -15.6910    55.8510 hc         1 E33       0.056200
     47 H23        -34.0250   -17.2390    56.2030 hc         1 E33       0.056200
     48 H24        -34.6730   -16.8180    53.8070 h1         1 E33       0.068700
     49 H26        -32.8890   -18.7780    55.5260 ha         1 E33       0.121000
     50 H27        -28.9410   -22.1600    52.6720 h1         1 E33       0.042033
     51 H28        -29.2320   -21.2910    54.2010 h1         1 E33       0.042033
     52 H29        -30.5580   -22.1920    53.4190 h1         1 E33       0.042033
     53 O3         -29.9740   -20.4410    52.4460 os         1 E33      -0.352100
@<TRIPOS>BOND
     1     1     2 1   
     2     1    25 1   
     3     1    26 1   
     4     1    27 1   
     5     2    13 1   
     6     2    28 1   
     7     2    29 1   
     8     3     4 1   
     9     3    16 1   
    10     3    30 1   
    11     3    31 1   
    12     4     5 1   
    13     4    32 1   
    14     4    33 1   
    15     5     6 1   
    16     5    34 1   
    17     5    35 1   
    18     6     9 1   
    19     6    17 1   
    20     6    36 1   
    21     7     8 1   
    22     7    21 1   
    23     7    37 1   
    24     7    38 1   
    25     8    22 1   
    26     8    39 1   
    27     8    40 1   
    28     9    22 1   
    29     9    41 1   
    30     9    42 1   
    31    10    11 ar  
    32    10    21 ar  
    33    10    43 1   
    34    11    12 ar  
    35    11    53 1   
    36    12    23 ar  
    37    12    44 1   
    38    13    14 2   
    39    13    15 2   
    40    13    16 1   
    41    16    17 1   
    42    17    18 1   
    43    17    45 1   
    44    18    19 1   
    45    18    46 1   
    46    18    47 1   
    47    19    20 1   
    48    19    22 1   
    49    19    48 1   
    50    20    21 ar  
    51    20    23 ar  
    52    23    49 1   
    53    24    50 1   
    54    24    51 1   
    55    24    52 1   
    56    24    53 1   
@<TRIPOS>SUBSTRUCTURE
     1 E33         1 TEMP              0 ****  ****    0 ROOT
