@<TRIPOS>MOLECULE
E33
   53    56     1     0     0
SMALL
No Charge or Current Charge


@<TRIPOS>ATOM
      1 C1         -29.8420   -14.9750    59.6690 c3         1 E33      -0.062100
      2 C2         -31.1530   -15.6920    60.0740 c3         1 E33      -0.332400
      3 C3         -33.2910   -14.0750    58.0680 c6         1 E33       0.231800
      4 C4         -33.1790   -12.7680    57.2470 c6         1 E33      -0.090400
      5 C5         -33.3070   -13.0390    55.7320 c6         1 E33      -0.064400
      6 C6         -32.2870   -14.1280    55.2950 c6         1 E33      -0.063700
      7 C12        -32.6990   -16.4360    51.4870 c6         1 E33      -0.070100
      8 C13        -33.8260   -15.5330    52.0470 c6         1 E33       0.163800
      9 C14        -32.4190   -14.4790    53.7920 c6         1 E33       0.165800
     10 C15        -31.3310   -18.5030    51.9900 ca         1 E33      -0.148000
     11 C16        -30.8700   -19.5200    52.8360 ca         1 E33       0.139100
     12 C17        -31.3360   -19.5780    54.1630 ca         1 E33      -0.187000
     13 S1         -32.0560   -16.4040    58.6840 s6         1 E33       1.255100
     14 O1         -31.1480   -17.3330    58.0020 o          1 E33      -0.551500
     15 O2         -33.3800   -16.8600    59.1180 o          1 E33      -0.551500
     16 N1         -32.2970   -15.0800    57.6120 n3         1 E33      -0.817500
     17 C7         -32.4080   -15.4170    56.1600 c6         1 E33       0.255500
     18 C8         -33.7050   -16.1920    55.7910 c6         1 E33      -0.078400
     19 C9         -33.7410   -16.5270    54.2750 c6         1 E33       0.230800
     20 C10        -32.7090   -17.5810    53.7900 ca         1 E33      -0.150300
     21 C11        -32.2480   -17.5410    52.4510 ca         1 E33      -0.041300
     22 N2         -33.6610   -15.2590    53.4970 n3         1 E33      -0.710600
     23 C18        -32.2510   -18.6210    54.6330 ca         1 E33      -0.055000
     24 C19        -29.4370   -21.5120    53.1080 c3         1 E33       0.148900
     25 H1         -29.3350   -14.5790    60.5570 hc         1 E33       0.046367
     26 H2         -29.1550   -15.6660    59.1650 hc         1 E33       0.046367
     27 H3         -30.0440   -14.1350    58.9930 hc         1 E33       0.046367
     28 H4         -31.8390   -14.9940    60.5640 h1         1 E33       0.096200
     29 H5         -30.9440   -16.5250    60.7530 h1         1 E33       0.096200
     30 H6         -33.1310   -13.8200    59.1250 h1         1 E33       0.053700
     31 H7         -34.3150   -14.4700    57.9920 h1         1 E33       0.053700
     32 H8         -32.2110   -12.2930    57.4570 hc         1 E33       0.046200
     33 H9         -33.9530   -12.0590    57.5700 hc         1 E33       0.046200
     34 H10        -33.1260   -12.1100    55.1740 hc         1 E33       0.052200
     35 H11        -34.3340   -13.3460    55.4930 hc         1 E33       0.052200
     36 H12        -31.2800   -13.7170    55.4490 hc         1 E33       0.046700
     37 H13        -33.0310   -16.8780    50.5390 hc         1 E33       0.054200
     38 H14        -31.8310   -15.8110    51.2390 hc         1 E33       0.054200
     39 H15        -33.8600   -14.5950    51.4730 h1         1 E33       0.055700
     40 H16        -34.7890   -16.0370    51.8790 h1         1 E33       0.055700
     41 H17        -31.5260   -15.0490    53.4990 h1         1 E33       0.040200
     42 H18        -32.4050   -13.5490    53.2060 h1         1 E33       0.040200
     43 H19        -30.9690   -18.4590    50.9660 ha         1 E33       0.124000
     44 H20        -31.0060   -20.3580    54.8440 ha         1 E33       0.122000
     45 H21        -31.5570   -16.0550    55.8750 h1         1 E33       0.081700
     46 H22        -34.5900   -15.5910    56.0300 hc         1 E33       0.056200
     47 H23        -33.8160   -17.1010    56.3900 hc         1 E33       0.056200
     48 H24        -34.7290   -16.9780    54.0920 h1         1 E33       0.068700
     49 H26        -32.5960   -18.7100    55.6580 ha         1 E33       0.121000
     50 H27        -28.7420   -22.1130    52.5080 h1         1 E33       0.042033
     51 H28        -28.8890   -21.1270    53.9780 h1         1 E33       0.042033
     52 H29        -30.2400   -22.1720    53.4610 h1         1 E33       0.042033
     53 O3         -29.9700   -20.4320    52.3210 os         1 E33      -0.352100
@<TRIPOS>BOND
     1     1     2 1   
     2     1    25 1   
     3     1    26 1   
     4     1    27 1   
     5     2    13 1   
     6     2    28 1   
     7     2    29 1   
     8     3     4 1   
     9     3    16 1   
    10     3    30 1   
    11     3    31 1   
    12     4     5 1   
    13     4    32 1   
    14     4    33 1   
    15     5     6 1   
    16     5    34 1   
    17     5    35 1   
    18     6     9 1   
    19     6    17 1   
    20     6    36 1   
    21     7     8 1   
    22     7    21 1   
    23     7    37 1   
    24     7    38 1   
    25     8    22 1   
    26     8    39 1   
    27     8    40 1   
    28     9    22 1   
    29     9    41 1   
    30     9    42 1   
    31    10    11 ar  
    32    10    21 ar  
    33    10    43 1   
    34    11    12 ar  
    35    11    53 1   
    36    12    23 ar  
    37    12    44 1   
    38    13    14 2   
    39    13    15 2   
    40    13    16 1   
    41    16    17 1   
    42    17    18 1   
    43    17    45 1   
    44    18    19 1   
    45    18    46 1   
    46    18    47 1   
    47    19    20 1   
    48    19    22 1   
    49    19    48 1   
    50    20    21 ar  
    51    20    23 ar  
    52    23    49 1   
    53    24    50 1   
    54    24    51 1   
    55    24    52 1   
    56    24    53 1   
@<TRIPOS>SUBSTRUCTURE
     1 E33         1 TEMP              0 ****  ****    0 ROOT
