@<TRIPOS>MOLECULE
E34
   25    25     1     0     0
SMALL
bcc


@<TRIPOS>ATOM
      1 O8          -1.7190    -1.9020    -0.1200 o          1 E34      -0.552000
      2 C4          -1.4610    -0.7200    -0.0660 c          1 E34       0.664700
      3 O7          -2.3950     0.2220    -0.0230 os         1 E34      -0.425900
      4 C11         -3.7680    -0.1890    -0.0420 c3         1 E34       0.145400
      5 C13         -4.6220     1.0480     0.1020 c3         1 E34      -0.097100
      6 C1          -0.0920    -0.1730    -0.0400 ca         1 E34      -0.162600
      7 C3           0.1760     1.1930    -0.0190 ca         1 E34      -0.055000
      8 C6           1.4860     1.6410    -0.0090 ca         1 E34      -0.202000
      9 C9           2.5590     0.7500    -0.0140 ca         1 E34       0.149600
     10 N12          3.8630     1.1800     0.0210 nv         1 E34      -0.824200
     11 C5           2.2920    -0.6400    -0.0030 ca         1 E34       0.045600
     12 N10          3.3730    -1.5220    -0.0310 nv         1 E34      -0.806200
     13 C2           0.9800    -1.0720    -0.0220 ca         1 E34      -0.097000
     14 H1          -3.9850    -0.7020    -0.9810 h1         1 E34       0.047700
     15 H2          -3.9580    -0.8890     0.7730 h1         1 E34       0.047700
     16 H3          -5.6720     0.7590     0.0870 hc         1 E34       0.045700
     17 H4          -4.4300     1.5620     1.0440 hc         1 E34       0.045700
     18 H5          -4.4570     1.7480    -0.7180 hc         1 E34       0.045700
     19 H6          -0.6240     1.9200    -0.0250 ha         1 E34       0.147000
     20 H7           1.6860     2.7060    -0.0130 ha         1 E34       0.133000
     21 H8           4.0050     2.1560    -0.1890 hn         1 E34       0.400300
     22 H9           4.5290     0.5940    -0.4590 hn         1 E34       0.400300
     23 H10          4.0860    -1.3090     0.6540 hn         1 E34       0.377800
     24 H11          3.0970    -2.4870     0.0700 hn         1 E34       0.377800
     25 H12          0.7850    -2.1380    -0.0150 ha         1 E34       0.149000
@<TRIPOS>BOND
     1     1     2 2   
     2     2     3 1   
     3     2     6 1   
     4     3     4 1   
     5     4     5 1   
     6     4    14 1   
     7     4    15 1   
     8     5    16 1   
     9     5    17 1   
    10     5    18 1   
    11     6     7 ar  
    12     6    13 ar  
    13     7     8 ar  
    14     7    19 1   
    15     8     9 ar  
    16     8    20 1   
    17     9    10 1   
    18     9    11 ar  
    19    10    21 1   
    20    10    22 1   
    21    11    12 1   
    22    11    13 ar  
    23    12    23 1   
    24    12    24 1   
    25    13    25 1   
@<TRIPOS>SUBSTRUCTURE
     1 E34         1 TEMP              0 ****  ****    0 ROOT
