@<TRIPOS>MOLECULE
E34
   25    25     1     0     0
SMALL
No Charge or Current Charge


@<TRIPOS>ATOM
      1 O8          -1.7500    -1.9590    -0.0470 o          1 E34      -0.503000
      2 C4          -1.4910    -0.7620    -0.0190 c          1 E34       0.615700
      3 O7          -2.4510     0.2180     0.0040 os         1 E34      -0.449100
      4 C11         -3.8310    -0.1830    -0.0040 c3         1 E34       0.168600
      5 C13         -4.6830     1.0950     0.0250 c3         1 E34      -0.097100
      6 C1          -0.0760    -0.2280    -0.0070 ca         1 E34      -0.162600
      7 C3           0.1850     1.1600     0.0270 ca         1 E34      -0.037000
      8 C6           1.5070     1.6370     0.0340 ca         1 E34      -0.184000
      9 C9           2.5900     0.7470     0.0100 ca         1 E34       0.288000
     10 N12          3.8690     1.2760    -0.0020 nv         1 E34      -1.073000
     11 C5           2.3450    -0.6650    -0.0160 ca         1 E34       0.184000
     12 N10          3.3730    -1.6030    -0.0180 nv         1 E34      -1.055000
     13 C2           1.0150    -1.1270    -0.0280 ca         1 E34      -0.079000
     14 H1          -4.0670    -0.7590    -0.9100 h1         1 E34       0.047700
     15 H2          -4.0660    -0.8000     0.8730 h1         1 E34       0.047700
     16 H3          -5.7490     0.8410     0.0200 hc         1 E34       0.045700
     17 H4          -4.4730     1.6780     0.9300 hc         1 E34       0.045700
     18 H5          -4.4740     1.7190    -0.8510 hc         1 E34       0.045700
     19 H6          -0.6310     1.8800     0.0450 ha         1 E34       0.129000
     20 H7           1.6830     2.7090     0.0560 ha         1 E34       0.115000
     21 H8           3.9820     2.2760    -0.1570 hn         1 E34       0.455500
     22 H9           4.6350     0.6840    -0.3130 hn         1 E34       0.455500
     23 H10          4.3080    -1.3090     0.2580 hn         1 E34       0.433000
     24 H11          3.1550    -2.5910     0.1020 hn         1 E34       0.433000
     25 H12          0.8290    -2.1980    -0.0500 ha         1 E34       0.131000
@<TRIPOS>BOND
     1     1     2 2   
     2     2     3 1   
     3     2     6 1   
     4     3     4 1   
     5     4     5 1   
     6     4    14 1   
     7     4    15 1   
     8     5    16 1   
     9     5    17 1   
    10     5    18 1   
    11     6     7 ar  
    12     6    13 ar  
    13     7     8 ar  
    14     7    19 1   
    15     8     9 ar  
    16     8    20 1   
    17     9    10 1   
    18     9    11 ar  
    19    10    21 1   
    20    10    22 1   
    21    11    12 1   
    22    11    13 ar  
    23    12    23 1   
    24    12    24 1   
    25    13    25 1   
@<TRIPOS>SUBSTRUCTURE
     1 E34         1 TEMP              0 ****  ****    0 ROOT
