@<TRIPOS>MOLECULE
E35
   23    23     1     0     0
SMALL
No Charge or Current Charge


@<TRIPOS>ATOM
      1 C01          4.4900     1.1130    -0.0200 c3         1 E35      -0.098100
      2 C02          3.7040    -0.2080    -0.0390 c3         1 E35       0.168600
      3 O03          2.3060     0.1230     0.0160 os         1 E35      -0.448100
      4 C04          1.3950    -0.9040     0.0100 c          1 E35       0.605700
      5 O05          1.7160    -2.0860    -0.0390 o          1 E35      -0.485000
      6 C06         -0.0500    -0.4430     0.0720 ca         1 E35      -0.063600
      7 C07         -1.0970    -1.3930     0.0730 ca         1 E35      -0.163500
      8 C08         -2.4370    -0.9850     0.1290 ca         1 E35       0.165100
      9 O09         -3.4260    -1.9210     0.1290 oh         1 E35      -0.529600
     10 C10         -2.7570     0.3770     0.1840 ca         1 E35      -0.224000
     11 C11         -1.7340     1.3330     0.1840 ca         1 E35       0.165100
     12 O12         -2.0580     2.6550     0.2380 oh         1 E35      -0.529600
     13 C13         -0.3890     0.9320     0.1280 ca         1 E35      -0.163500
     14 H1           4.2230     1.7340    -0.8830 hc         1 E35       0.047033
     15 H2           4.2790     1.6750     0.8970 hc         1 E35       0.047033
     16 H3           5.5680     0.9130    -0.0610 hc         1 E35       0.047033
     17 H4           3.9400    -0.7620    -0.9580 h1         1 E35       0.050700
     18 H5           3.9970    -0.8210     0.8240 h1         1 E35       0.050700
     19 H6          -0.8700    -2.4560     0.0310 ha         1 E35       0.143500
     20 H7          -4.2890    -1.4580     0.1720 ho         1 E35       0.469500
     21 H8          -3.7930     0.7010     0.2280 ha         1 E35       0.131000
     22 H9          -1.2300     3.1800     0.2290 ho         1 E35       0.469500
     23 H10          0.3930     1.6870     0.1280 ha         1 E35       0.143500
@<TRIPOS>BOND
     1     1     2 1   
     2     1    14 1   
     3     1    15 1   
     4     1    16 1   
     5     2     3 1   
     6     2    17 1   
     7     2    18 1   
     8     3     4 1   
     9     4     5 2   
    10     4     6 1   
    11     6     7 ar  
    12     6    13 ar  
    13     7     8 ar  
    14     7    19 1   
    15     8     9 1   
    16     8    10 ar  
    17     9    20 1   
    18    10    11 ar  
    19    10    21 1   
    20    11    12 1   
    21    11    13 ar  
    22    12    22 1   
    23    13    23 1   
@<TRIPOS>SUBSTRUCTURE
     1 E35         1 TEMP              0 ****  ****    0 ROOT
