@<TRIPOS>MOLECULE
E35
   23    23     1     0     0
SMALL
abcg2


@<TRIPOS>ATOM
      1 C01          4.4210     1.0710     0.0750 c3         1 E35      -0.098100
      2 C02          3.6410    -0.2110    -0.0850 c3         1 E35       0.168600
      3 O03          2.2440     0.1150    -0.0030 os         1 E35      -0.448100
      4 C04          1.3690    -0.8730    -0.0380 c          1 E35       0.605700
      5 O05          1.6760    -2.0380    -0.1280 o          1 E35      -0.485000
      6 C06         -0.0410    -0.3980     0.0480 ca         1 E35      -0.063600
      7 C07         -1.0370    -1.3630     0.1030 ca         1 E35      -0.163500
      8 C08         -2.3680    -0.9620     0.1800 ca         1 E35       0.165100
      9 O09         -3.3040    -1.9260     0.2360 oh         1 E35      -0.529600
     10 C10         -2.6950     0.3880     0.1950 ca         1 E35      -0.224000
     11 C11         -1.6850     1.3450     0.1360 ca         1 E35       0.165100
     12 O12         -2.0630     2.6350     0.1520 oh         1 E35      -0.529600
     13 C13         -0.3510     0.9590     0.0650 ca         1 E35      -0.163500
     14 H1           4.1840     1.7880    -0.7100 hc         1 E35       0.047033
     15 H2           4.2340     1.5370     1.0420 hc         1 E35       0.047033
     16 H3           5.4860     0.8470     0.0130 hc         1 E35       0.047033
     17 H4           3.8490    -0.6770    -1.0500 h1         1 E35       0.050700
     18 H5           3.8980    -0.9260     0.6980 h1         1 E35       0.050700
     19 H6          -0.7920    -2.4170     0.0870 ha         1 E35       0.143500
     20 H7          -4.1860    -1.5410     0.2840 ho         1 E35       0.469500
     21 H8          -3.7300     0.7070     0.2520 ha         1 E35       0.131000
     22 H9          -1.2950     3.2150     0.0970 ho         1 E35       0.469500
     23 H10          0.4260     1.7110     0.0240 ha         1 E35       0.143500
@<TRIPOS>BOND
     1     1     2 1   
     2     1    14 1   
     3     1    15 1   
     4     1    16 1   
     5     2     3 1   
     6     2    17 1   
     7     2    18 1   
     8     3     4 1   
     9     4     5 2   
    10     4     6 1   
    11     6     7 ar  
    12     6    13 ar  
    13     7     8 ar  
    14     7    19 1   
    15     8     9 1   
    16     8    10 ar  
    17     9    20 1   
    18    10    11 ar  
    19    10    21 1   
    20    11    12 1   
    21    11    13 ar  
    22    12    22 1   
    23    13    23 1   
@<TRIPOS>SUBSTRUCTURE
     1 E35         1 TEMP              0 ****  ****    0 ROOT
