@<TRIPOS>MOLECULE
E36
   42    45     1     0     0
SMALL
No Charge or Current Charge


@<TRIPOS>ATOM
      1 O1          -7.1670    -2.4040    -0.0170 os         1 E36      -0.332100
      2 C2          -8.5690    -2.2980     0.3170 c6         1 E36       0.118600
      3 C3          -9.1830    -1.0620    -0.3750 c6         1 E36       0.118600
      4 O4          -8.4420     0.1240    -0.0120 os         1 E36      -0.332100
      5 C5          -7.0640     0.0320     0.0080 ca         1 E36       0.083100
      6 C6          -6.4210    -1.2410    -0.0110 ca         1 E36       0.043100
      7 C7          -5.0130    -1.3260    -0.0230 ca         1 E36      -0.057000
      8 C8          -4.2700    -0.1360     0.0060 ca         1 E36       0.077400
      9 N9          -2.8900    -0.0010     0.0070 nc         1 E36      -0.595100
     10 C10         -2.7680     1.3350     0.0450 cd         1 E36       0.417700
     11 N11         -3.9530     2.0680     0.0700 na         1 E36      -0.301600
     12 C12         -4.9020     1.0820     0.0440 ca         1 E36      -0.069200
     13 C13         -6.2970     1.2120     0.0470 ca         1 E36      -0.120000
     14 S14         -1.2250     2.1940     0.0650 ss         1 E36      -0.169200
     15 C15          0.0280     0.8210     0.0220 c3         1 E36      -0.068400
     16 C16          1.4870     1.3060     0.0320 c          1 E36       0.594700
     17 O17          1.7530     2.5020     0.0630 o          1 E36      -0.497100
     18 C18          2.6000     0.2770     0.0020 ca         1 E36      -0.197600
     19 C19          3.9470     0.7060     0.0150 ca         1 E36       0.042000
     20 C20          5.0080    -0.2260    -0.0150 ca         1 E36      -0.273500
     21 C21          4.7190    -1.6060    -0.0480 ca         1 E36       0.236000
     22 C22          3.3840    -2.0340    -0.0610 ca         1 E36      -0.141000
     23 C23          2.3290    -1.1090    -0.0380 ca         1 E36      -0.012000
     24 S24          6.6930     0.3880    -0.0030 sy         1 E36       1.157600
     25 O25          7.5420    -0.3640    -0.9220 o          1 E36      -0.537000
     26 Cl26         5.9670    -2.8560    -0.0520 cl         1 E36      -0.151000
     27 O27          6.7140     1.8480     0.0400 o          1 E36      -0.537000
     28 N28          7.2490    -0.0490     1.4640 n8         1 E36      -1.040100
     29 H2          -9.0880    -3.2160     0.0070 h1         1 E36       0.066700
     30 H2A         -8.6690    -2.1960     1.4070 h1         1 E36       0.066700
     31 H3          -9.1370    -1.1920    -1.4650 h1         1 E36       0.067700
     32 H3A        -10.2350    -0.9370    -0.0850 h1         1 E36       0.067700
     33 H7          -4.5150    -2.2910    -0.0450 ha         1 E36       0.142000
     34 HN11        -4.0620     3.0730     0.0990 hn         1 E36       0.368000
     35 H13         -6.7750     2.1880     0.0690 ha         1 E36       0.135000
     36 H15         -0.1190     0.1740     0.8940 h1         1 E36       0.105200
     37 H15A        -0.1240     0.2250    -0.8860 h1         1 E36       0.105200
     38 H19          4.1680     1.7740     0.0470 ha         1 E36       0.167000
     39 H22          3.1630    -3.0990    -0.0850 ha         1 E36       0.139000
     40 H23          1.3100    -1.4900    -0.0490 ha         1 E36       0.129000
     41 HN28         7.6840     0.8230     1.7570 hn         1 E36       0.490500
     42 HN2A         8.0560    -0.6030     1.1840 hn         1 E36       0.490500
@<TRIPOS>BOND
     1     1     2 1   
     2     1     6 1   
     3     2     3 1   
     4     2    29 1   
     5     2    30 1   
     6     3     4 1   
     7     3    31 1   
     8     3    32 1   
     9     4     5 1   
    10     5     6 ar  
    11     5    13 ar  
    12     6     7 ar  
    13     7     8 ar  
    14     7    33 1   
    15     8     9 1   
    16     8    12 ar  
    17     9    10 2   
    18    10    11 1   
    19    10    14 1   
    20    11    12 1   
    21    11    34 1   
    22    12    13 ar  
    23    13    35 1   
    24    14    15 1   
    25    15    16 1   
    26    15    36 1   
    27    15    37 1   
    28    16    17 2   
    29    16    18 1   
    30    18    19 ar  
    31    18    23 ar  
    32    19    20 ar  
    33    19    38 1   
    34    20    21 ar  
    35    20    24 1   
    36    21    22 ar  
    37    21    26 1   
    38    22    23 ar  
    39    22    39 1   
    40    23    40 1   
    41    24    25 2   
    42    24    27 2   
    43    24    28 1   
    44    28    41 1   
    45    28    42 1   
@<TRIPOS>SUBSTRUCTURE
     1 E36         1 TEMP              0 ****  ****    0 ROOT
