@<TRIPOS>MOLECULE
E36
   42    45     1     0     0
SMALL
abcg2


@<TRIPOS>ATOM
      1 O1          -7.0270    -2.3730    -0.0020 os         1 E36      -0.332100
      2 C2          -8.3890    -2.2160     0.3570 c6         1 E36       0.118600
      3 C3          -8.9810    -1.0350    -0.3700 c6         1 E36       0.118600
      4 O4          -8.2900     0.1510    -0.0130 os         1 E36      -0.332100
      5 C5          -6.9380     0.0400     0.0010 ca         1 E36       0.083100
      6 C6          -6.3030    -1.2220     0.0050 ca         1 E36       0.043100
      7 C7          -4.9230    -1.3260     0.0120 ca         1 E36      -0.057000
      8 C8          -4.1720    -0.1550     0.0170 ca         1 E36       0.077400
      9 N9          -2.8050     0.0200     0.0250 nc         1 E36      -0.595100
     10 C10         -2.6360     1.3110     0.0410 cd         1 E36       0.417700
     11 N11         -3.8010     2.0110     0.0430 na         1 E36      -0.301600
     12 C12         -4.8190     1.0880     0.0290 ca         1 E36      -0.069200
     13 C13         -6.1980     1.2130     0.0140 ca         1 E36      -0.120000
     14 S14         -1.1170     2.1640     0.0600 ss         1 E36      -0.169200
     15 C15         -0.0120     0.7360     0.0110 c3         1 E36      -0.068400
     16 C16          1.4050     1.2460     0.0200 c          1 E36       0.594700
     17 O17          1.6370     2.4330     0.0480 o          1 E36      -0.497100
     18 C18          2.4990     0.2420    -0.0080 ca         1 E36      -0.197600
     19 C19          3.8160     0.6960    -0.0020 ca         1 E36       0.042000
     20 C20          4.8690    -0.1990    -0.0240 ca         1 E36      -0.273500
     21 C21          4.6110    -1.5710    -0.0560 ca         1 E36       0.236000
     22 C22          3.3040    -2.0300    -0.0600 ca         1 E36      -0.141000
     23 C23          2.2550    -1.1270    -0.0380 ca         1 E36      -0.012000
     24 S24          6.5280     0.4550    -0.0480 sy         1 E36       1.157600
     25 O25          7.2520    -0.1620    -1.1450 o          1 E36      -0.537000
     26 CL26         5.8770    -2.7290    -0.0770 cl         1 E36      -0.151000
     27 O27          6.3970     1.9020    -0.0070 o          1 E36      -0.537000
     28 N28          7.1510    -0.1250     1.3500 n8         1 E36      -1.040100
     29 H2          -8.9030    -3.1340     0.0770 h1         1 E36       0.066700
     30 H2A         -8.4830    -2.0830     1.4410 h1         1 E36       0.066700
     31 H3          -8.9320    -1.1900    -1.4530 h1         1 E36       0.067700
     32 H3A        -10.0240    -0.8960    -0.0900 h1         1 E36       0.067700
     33 H7          -4.4510    -2.3000     0.0140 ha         1 E36       0.142000
     34 HN11        -3.9020     3.0140     0.0530 hn         1 E36       0.368000
     35 H13         -6.6960     2.1740     0.0110 ha         1 E36       0.135000
     36 H15         -0.1900     0.0880     0.8710 h1         1 E36       0.105200
     37 H15A        -0.1980     0.1430    -0.8870 h1         1 E36       0.105200
     38 H19          4.0110     1.7590     0.0230 ha         1 E36       0.167000
     39 H22          3.1070    -3.0920    -0.0810 ha         1 E36       0.139000
     40 H23          1.2460    -1.5180    -0.0430 ha         1 E36       0.129000
     41 HN28         7.0470     0.4990     2.1410 hn         1 E36       0.490500
     42 HN2A         8.0920    -0.4880     1.2570 hn         1 E36       0.490500
@<TRIPOS>BOND
     1     1     2 1   
     2     1     6 1   
     3     2     3 1   
     4     2    29 1   
     5     2    30 1   
     6     3     4 1   
     7     3    31 1   
     8     3    32 1   
     9     4     5 1   
    10     5     6 ar  
    11     5    13 ar  
    12     6     7 ar  
    13     7     8 ar  
    14     7    33 1   
    15     8     9 1   
    16     8    12 ar  
    17     9    10 2   
    18    10    11 1   
    19    10    14 1   
    20    11    12 1   
    21    11    34 1   
    22    12    13 ar  
    23    13    35 1   
    24    14    15 1   
    25    15    16 1   
    26    15    36 1   
    27    15    37 1   
    28    16    17 2   
    29    16    18 1   
    30    18    19 ar  
    31    18    23 ar  
    32    19    20 ar  
    33    19    38 1   
    34    20    21 ar  
    35    20    24 1   
    36    21    22 ar  
    37    21    26 1   
    38    22    23 ar  
    39    22    39 1   
    40    23    40 1   
    41    24    25 2   
    42    24    27 2   
    43    24    28 1   
    44    28    41 1   
    45    28    42 1   
@<TRIPOS>SUBSTRUCTURE
     1 E36         1 TEMP              0 ****  ****    0 ROOT
