@<TRIPOS>MOLECULE
E37
   48    50     1     0     0
SMALL
abcg2


@<TRIPOS>ATOM
      1 O1           4.6760     2.5320    -1.4980 o          1 E37      -0.622100
      2 C6           5.2620     2.2320    -0.4710 c          1 E37       0.598100
      3 N1           6.2040     2.9940     0.1000 nt         1 E37      -0.604000
      4 C7           5.0220     0.8910     0.2270 c3         1 E37       0.022700
      5 C8           5.9260    -0.1750    -0.3950 c3         1 E37      -0.065400
      6 C9           5.8660    -1.5080     0.3350 c3         1 E37      -0.212400
      7 C10          6.8190    -2.5900    -0.2080 c          1 E37       0.718000
      8 O4E          6.7140    -3.7170     0.3170 o          1 E37      -0.735000
      9 O4           7.6150    -2.2620    -1.1080 o          1 E37      -0.735000
     10 N2           3.6410     0.5000     0.1040 ns         1 E37      -0.461900
     11 C11          2.6550     1.2340     0.6480 c          1 E37       0.608700
     12 O2           2.8790     2.2390     1.3080 o          1 E37      -0.622100
     13 C27          1.2650     0.7490     0.4120 ca         1 E37      -0.129600
     14 C28          0.9660    -0.5930     0.1900 ca         1 E37      -0.069000
     15 C15         -0.3430    -1.0020     0.0010 ca         1 E37      -0.113500
     16 C16         -1.3900    -0.0790     0.0110 ca         1 E37      -0.005000
     17 C17         -1.0830     1.2670     0.2350 ca         1 E37      -0.113500
     18 C14          0.2210     1.6700     0.4490 ca         1 E37      -0.069000
     19 C18         -2.7750    -0.4930    -0.1980 cc         1 E37      -0.148000
     20 C19         -3.9170     0.1540     0.1820 cd         1 E37      -0.121000
     21 C20         -5.1110    -0.5410    -0.1680 cd         1 E37      -0.060000
     22 C29         -4.8350    -1.7120    -0.8200 cc         1 E37      -0.249000
     23 S7          -3.1590    -1.9700    -1.0070 ss         1 E37       0.234000
     24 C21         -6.4660    -0.0590     0.1340 ca         1 E37      -0.003000
     25 C22         -7.5180    -0.9560     0.3320 ca         1 E37      -0.101000
     26 C23         -8.7990    -0.4990     0.6010 ca         1 E37      -0.112500
     27 C24         -9.0530     0.8640     0.6860 ca         1 E37      -0.115000
     28 C25         -8.0130     1.7660     0.4980 ca         1 E37      -0.112500
     29 C26         -6.7330     1.3080     0.2230 ca         1 E37      -0.101000
     30 H1           6.4760     3.8700    -0.3150 hn         1 E37       0.306500
     31 H2           6.6240     2.7520     0.9800 hn         1 E37       0.306500
     32 H3           5.2700     0.9870     1.2900 h1         1 E37       0.065700
     33 H4           5.6570    -0.2990    -1.4480 hc         1 E37       0.059700
     34 H5           6.9510     0.1980    -0.3860 hc         1 E37       0.059700
     35 H6           6.1000    -1.3510     1.3950 hc         1 E37       0.019700
     36 H7           4.8480    -1.9110     0.3270 hc         1 E37       0.019700
     37 H9           3.4130    -0.1840    -0.6000 hn         1 E37       0.330500
     38 H10          1.7450    -1.3450     0.1960 ha         1 E37       0.133500
     39 H11         -0.5420    -2.0580    -0.1350 ha         1 E37       0.113500
     40 H12         -1.8690     2.0110     0.2300 ha         1 E37       0.113500
     41 H13          0.4300     2.7160     0.6250 ha         1 E37       0.133500
     42 H14         -3.9110     1.0840     0.7340 ha         1 E37       0.136000
     43 H15         -5.5370    -2.4270    -1.2240 h4         1 E37       0.148000
     44 H16         -7.3320    -2.0220     0.2910 ha         1 E37       0.114000
     45 H17         -9.6000    -1.2110     0.7540 ha         1 E37       0.109000
     46 H18        -10.0510     1.2210     0.9030 ha         1 E37       0.108000
     47 H19         -8.1990     2.8300     0.5600 ha         1 E37       0.109000
     48 H20         -5.9380     2.0260     0.0620 ha         1 E37       0.114000
@<TRIPOS>BOND
     1     1     2 2   
     2     2     3 1   
     3     2     4 1   
     4     3    30 1   
     5     3    31 1   
     6     4     5 1   
     7     4    10 1   
     8     4    32 1   
     9     5     6 1   
    10     5    33 1   
    11     5    34 1   
    12     6     7 1   
    13     6    35 1   
    14     6    36 1   
    15     7     8 1   
    16     7     9 1   
    17    10    11 1   
    18    10    37 1   
    19    11    12 2   
    20    11    13 1   
    21    13    14 ar  
    22    13    18 ar  
    23    14    15 ar  
    24    14    38 1   
    25    15    16 ar  
    26    15    39 1   
    27    16    17 ar  
    28    16    19 1   
    29    17    18 ar  
    30    17    40 1   
    31    18    41 1   
    32    19    20 2   
    33    19    23 1   
    34    20    21 1   
    35    20    42 1   
    36    21    22 2   
    37    21    24 1   
    38    22    23 1   
    39    22    43 1   
    40    24    25 ar  
    41    24    29 ar  
    42    25    26 ar  
    43    25    44 1   
    44    26    27 ar  
    45    26    45 1   
    46    27    28 ar  
    47    27    46 1   
    48    28    29 ar  
    49    28    47 1   
    50    29    48 1   
@<TRIPOS>SUBSTRUCTURE
     1 E37         1 TEMP              0 ****  ****    0 ROOT
