@<TRIPOS>MOLECULE
E37
   48    50     1     0     0
SMALL
No Charge or Current Charge


@<TRIPOS>ATOM
      1 O1           4.8070     1.7800    -2.7280 o          1 E37      -0.622100
      2 C6           5.5110     1.7350    -1.7300 c          1 E37       0.598100
      3 N1           6.7760     2.2110    -1.7850 nt         1 E37      -0.604000
      4 C7           5.0440     1.1420    -0.3650 c3         1 E37       0.022700
      5 C8           5.9150    -0.0730     0.0690 c3         1 E37      -0.065400
      6 C9           5.5520    -0.6760     1.4530 c3         1 E37      -0.212400
      7 C10          6.5500    -1.7870     1.8260 c          1 E37       0.718000
      8 O4E          6.3070    -2.9260     1.4600 o          1 E37      -0.735000
      9 O4           7.5690    -1.4690     2.4210 o          1 E37      -0.735000
     10 N2           3.6040     0.7950    -0.4270 ns         1 E37      -0.461900
     11 C11          2.6800     1.0240     0.5720 c          1 E37       0.608700
     12 O2           2.9950     1.5800     1.6170 o          1 E37      -0.622100
     13 C27          1.2590     0.5640     0.3040 ca         1 E37      -0.129600
     14 C28          0.8880    -0.0940    -0.8940 ca         1 E37      -0.069000
     15 C15         -0.4400    -0.5060    -1.1020 ca         1 E37      -0.113500
     16 C16         -1.4310    -0.2720    -0.1310 ca         1 E37      -0.005000
     17 C17         -1.0640     0.3750     1.0650 ca         1 E37      -0.113500
     18 C14          0.2620     0.7880     1.2790 ca         1 E37      -0.069000
     19 C18         -2.8090    -0.7150    -0.3660 cc         1 E37      -0.148000
     20 C19         -3.8900    -0.0370     0.1380 cd         1 E37      -0.121000
     21 C20         -5.1520    -0.6130    -0.2190 cd         1 E37      -0.060000
     22 C29         -4.9870    -1.7320    -1.0130 cc         1 E37      -0.249000
     23 S7          -3.2940    -2.0890    -1.3410 ss         1 E37       0.234000
     24 C21         -6.4770    -0.0820     0.1950 ca         1 E37      -0.003000
     25 C22         -7.6740    -0.7110    -0.2250 ca         1 E37      -0.101000
     26 C23         -8.9290    -0.2120     0.1650 ca         1 E37      -0.112500
     27 C24         -9.0140     0.9240     0.9820 ca         1 E37      -0.115000
     28 C25         -7.8400     1.5610     1.4090 ca         1 E37      -0.112500
     29 C26         -6.5840     1.0640     1.0200 ca         1 E37      -0.101000
     30 H1           7.1180     2.6010    -2.6500 hn         1 E37       0.306500
     31 H2           7.3660     2.1840    -0.9660 hn         1 E37       0.306500
     32 H3           5.1810     1.9410     0.3740 h1         1 E37       0.065700
     33 H4           5.8410    -0.8580    -0.6940 hc         1 E37       0.059700
     34 H5           6.9680     0.2340     0.0950 hc         1 E37       0.059700
     35 H6           5.6200     0.1520     2.1690 hc         1 E37       0.019700
     36 H7           4.5440    -1.0950     1.3530 hc         1 E37       0.019700
     37 H9           3.2570     0.3800    -1.2820 hn         1 E37       0.330500
     38 H10          1.6130    -0.2970    -1.6780 ha         1 E37       0.133500
     39 H11         -0.6970    -1.0030    -2.0340 ha         1 E37       0.113500
     40 H12         -1.8010     0.5500     1.8450 ha         1 E37       0.113500
     41 H13          0.5130     1.2840     2.2150 ha         1 E37       0.133500
     42 H14         -3.7850     0.8580     0.7400 ha         1 E37       0.136000
     43 H15         -5.7300    -2.3860    -1.4460 h4         1 E37       0.148000
     44 H16         -7.6480    -1.5920    -0.8580 ha         1 E37       0.114000
     45 H17         -9.8380    -0.7090    -0.1680 ha         1 E37       0.109000
     46 H18         -9.9860     1.3100     1.2830 ha         1 E37       0.108000
     47 H19         -7.9010     2.4430     2.0430 ha         1 E37       0.109000
     48 H20         -5.6990     1.5840     1.3720 ha         1 E37       0.114000
@<TRIPOS>BOND
     1     1     2 2   
     2     2     3 1   
     3     2     4 1   
     4     3    30 1   
     5     3    31 1   
     6     4     5 1   
     7     4    10 1   
     8     4    32 1   
     9     5     6 1   
    10     5    33 1   
    11     5    34 1   
    12     6     7 1   
    13     6    35 1   
    14     6    36 1   
    15     7     8 1   
    16     7     9 1   
    17    10    11 1   
    18    10    37 1   
    19    11    12 2   
    20    11    13 1   
    21    13    14 ar  
    22    13    18 ar  
    23    14    15 ar  
    24    14    38 1   
    25    15    16 ar  
    26    15    39 1   
    27    16    17 ar  
    28    16    19 1   
    29    17    18 ar  
    30    17    40 1   
    31    18    41 1   
    32    19    20 2   
    33    19    23 1   
    34    20    21 1   
    35    20    42 1   
    36    21    22 2   
    37    21    24 1   
    38    22    23 1   
    39    22    43 1   
    40    24    25 ar  
    41    24    29 ar  
    42    25    26 ar  
    43    25    44 1   
    44    26    27 ar  
    45    26    45 1   
    46    27    28 ar  
    47    27    46 1   
    48    28    29 ar  
    49    28    47 1   
    50    29    48 1   
@<TRIPOS>SUBSTRUCTURE
     1 E37         1 TEMP              0 ****  ****    0 ROOT
