@<TRIPOS>MOLECULE
E38
   36    38     1     0     0
SMALL
abcg2


@<TRIPOS>ATOM
      1 N1           3.3720    -2.6440    -0.0090 na         1 E38      -0.297600
      2 C2           2.2660    -1.8570     0.0270 cc         1 E38       0.419700
      3 N3           2.5350    -0.5820     0.0470 nd         1 E38      -0.596100
      4 C4           3.9080    -0.5140     0.0230 ca         1 E38       0.074400
      5 C5           4.4560    -1.8060    -0.0130 ca         1 E38      -0.066200
      6 C6           5.8240    -2.0330    -0.0440 ca         1 E38      -0.110000
      7 C7           6.6490    -0.9210    -0.0380 ca         1 E38      -0.071000
      8 C8           6.1020     0.3670     0.0000 ca         1 E38      -0.037900
      9 C9           4.7400     0.6030     0.0310 ca         1 E38      -0.024000
     10 S10          0.6850    -2.5860     0.0470 ss         1 E38      -0.164200
     11 C11         -0.3020    -1.0710     0.0100 c3         1 E38      -0.068400
     12 C12         -1.7540    -1.4690     0.0280 c          1 E38       0.593700
     13 O13         -2.0780    -2.6330     0.0630 o          1 E38      -0.492100
     14 BR14         7.2840     1.8470     0.0100 br         1 E38      -0.099100
     15 C15         -2.7650    -0.3810    -0.0020 ca         1 E38      -0.193600
     16 C16         -4.1140    -0.7280     0.0150 ca         1 E38       0.047000
     17 C17         -5.0910     0.2500    -0.0170 ca         1 E38      -0.314500
     18 C18         -4.7200     1.5940    -0.0650 ca         1 E38       0.217000
     19 C19         -3.3820     1.9490    -0.0760 ca         1 E38      -0.135000
     20 C20         -2.4100     0.9640    -0.0470 ca         1 E38      -0.014000
     21 S21         -6.8030    -0.2710    -0.0370 sy         1 E38       1.158600
     22 O22         -7.4500     0.3800    -1.1580 o          1 E38      -0.519500
     23 CL23        -5.8930     2.8510    -0.0890 cl         1 E38      -0.167000
     24 O24         -6.7900    -1.7190     0.0560 o          1 E38      -0.519500
     25 N25         -7.5130     0.2790     1.3250 n8         1 E38      -1.017100
     26 H6           6.2400    -3.0310    -0.0740 ha         1 E38       0.124000
     27 H7           7.7210    -1.0590    -0.0620 ha         1 E38       0.131000
     28 H9           4.3260     1.6020     0.0610 ha         1 E38       0.143000
     29 H11         -0.0670    -0.4440     0.8730 h1         1 E38       0.105700
     30 H11A        -0.0720    -0.4940    -0.8880 h1         1 E38       0.105700
     31 H16         -4.3970    -1.7700     0.0510 ha         1 E38       0.170000
     32 H19         -3.0990     2.9910    -0.1090 ha         1 E38       0.140000
     33 H20         -1.3730     1.2720    -0.0600 ha         1 E38       0.131000
     34 HN25        -7.1430    -0.1120     2.1840 hn         1 E38       0.488000
     35 HN2A        -7.6470     1.2820     1.3790 hn         1 E38       0.488000
     36 HN1          3.3950    -3.6520    -0.0360 hn         1 E38       0.370000
@<TRIPOS>BOND
     1     1     2 1   
     2     1     5 1   
     3     1    36 1   
     4     2     3 2   
     5     2    10 1   
     6     3     4 1   
     7     4     5 ar  
     8     4     9 ar  
     9     5     6 ar  
    10     6     7 ar  
    11     6    26 1   
    12     7     8 ar  
    13     7    27 1   
    14     8     9 ar  
    15     8    14 1   
    16     9    28 1   
    17    10    11 1   
    18    11    12 1   
    19    11    29 1   
    20    11    30 1   
    21    12    13 2   
    22    12    15 1   
    23    15    16 ar  
    24    15    20 ar  
    25    16    17 ar  
    26    16    31 1   
    27    17    18 ar  
    28    17    21 1   
    29    18    19 ar  
    30    18    23 1   
    31    19    20 ar  
    32    19    32 1   
    33    20    33 1   
    34    21    22 2   
    35    21    24 2   
    36    21    25 1   
    37    25    34 1   
    38    25    35 1   
@<TRIPOS>SUBSTRUCTURE
     1 E38         1 TEMP              0 ****  ****    0 ROOT
