@<TRIPOS>MOLECULE
E38
   36    38     1     0     0
SMALL
No Charge or Current Charge


@<TRIPOS>ATOM
      1 N1           3.5400    -2.7220    -0.0160 na         1 E38      -0.297600
      2 C2           2.4010    -1.9360    -0.0130 cc         1 E38       0.419700
      3 N3           2.6490    -0.6170    -0.0040 nd         1 E38      -0.596100
      4 C4           4.0450    -0.5820    -0.0030 ca         1 E38       0.074400
      5 C5           4.5830    -1.8450    -0.0100 ca         1 E38      -0.066200
      6 C6           5.9620    -2.0860    -0.0100 ca         1 E38      -0.110000
      7 C7           6.8180    -0.9640    -0.0020 ca         1 E38      -0.071000
      8 C8           6.2760     0.3440     0.0060 ca         1 E38      -0.037900
      9 C9           4.8780     0.5460     0.0050 ca         1 E38      -0.024000
     10 S10          0.7990    -2.6590    -0.0190 ss         1 E38      -0.164200
     11 C11         -0.3100    -1.1660    -0.0120 c3         1 E38      -0.068400
     12 C12         -1.8100    -1.5020    -0.0150 c          1 E38       0.593700
     13 O13         -2.1930    -2.6670    -0.0250 o          1 E38      -0.492100
     14 Br14         7.4510     1.8540     0.0160 br         1 E38      -0.099100
     15 C15         -2.8140    -0.3670    -0.0080 ca         1 E38      -0.193600
     16 C16         -4.1970    -0.6610    -0.0070 ca         1 E38       0.047000
     17 C17         -5.1600     0.3730    -0.0030 ca         1 E38      -0.314500
     18 C18         -4.7340     1.7190     0.0100 ca         1 E38       0.217000
     19 C19         -3.3630     2.0120     0.0100 ca         1 E38      -0.135000
     20 C20         -2.4060     0.9860    -0.0010 ca         1 E38      -0.014000
     21 S21         -6.8980    -0.0710    -0.0100 sy         1 E38       1.158600
     22 O22         -7.6640     0.7930    -0.9030 o          1 E38      -0.519500
     23 Cl23        -5.8510     3.0850     0.0520 cl         1 E38      -0.167000
     24 O24         -7.0580    -1.5230    -0.0210 o          1 E38      -0.519500
     25 N25         -7.4020     0.3720     1.4760 n8         1 E38      -1.017100
     26 H6           6.3610    -3.0980    -0.0160 ha         1 E38       0.124000
     27 H7           7.8970    -1.1060    -0.0010 ha         1 E38       0.131000
     28 H9           4.4560     1.5470     0.0110 ha         1 E38       0.143000
     29 H11         -0.1000    -0.5680     0.8830 h1         1 E38       0.105700
     30 H11A        -0.0980    -0.5580    -0.8980 h1         1 E38       0.105700
     31 H16         -4.5230    -1.7020    -0.0120 ha         1 E38       0.170000
     32 H19         -3.0370     3.0490     0.0220 ha         1 E38       0.140000
     33 H20         -1.3540     1.2630    -0.0000 ha         1 E38       0.131000
     34 HN25        -8.0960     1.0720     1.2250 hn         1 E38       0.488000
     35 HN2A        -7.9830    -0.4270     1.7190 hn         1 E38       0.488000
     36 HN1          3.5750    -3.7330    -0.0220 hn         1 E38       0.370000
@<TRIPOS>BOND
     1     1     2 1   
     2     1     5 1   
     3     1    36 1   
     4     2     3 2   
     5     2    10 1   
     6     3     4 1   
     7     4     5 ar  
     8     4     9 ar  
     9     5     6 ar  
    10     6     7 ar  
    11     6    26 1   
    12     7     8 ar  
    13     7    27 1   
    14     8     9 ar  
    15     8    14 1   
    16     9    28 1   
    17    10    11 1   
    18    11    12 1   
    19    11    29 1   
    20    11    30 1   
    21    12    13 2   
    22    12    15 1   
    23    15    16 ar  
    24    15    20 ar  
    25    16    17 ar  
    26    16    31 1   
    27    17    18 ar  
    28    17    21 1   
    29    18    19 ar  
    30    18    23 1   
    31    19    20 ar  
    32    19    32 1   
    33    20    33 1   
    34    21    22 2   
    35    21    24 2   
    36    21    25 1   
    37    25    34 1   
    38    25    35 1   
@<TRIPOS>SUBSTRUCTURE
     1 E38         1 TEMP              0 ****  ****    0 ROOT
