@<TRIPOS>MOLECULE
E39
   34    36     1     0     0
SMALL
No Charge or Current Charge


@<TRIPOS>ATOM
      1 C4           0.7720    -2.7590     1.2950 c3         1 E39      -0.100100
      2 C3          -0.8010    -3.3860    -0.6440 c3         1 E39      -0.100100
      3 C2           0.2680    -2.4020    -0.1200 c3         1 E39       0.244500
      4 C1          -3.3510     1.2290     1.1570 ca         1 E39      -0.187000
      5 C10         -1.3620     0.8940    -0.1900 ca         1 E39      -0.199300
      6 C11          4.2310     0.4410    -0.7390 cc         1 E39       0.389400
      7 C12         -1.2430    -0.3870     0.3030 ca         1 E39       0.331000
      8 C13         -2.1610    -0.8990     1.2360 ca         1 E39      -0.162000
      9 C14         -3.2250    -0.0800     1.6640 ca         1 E39      -0.057000
     10 C5           0.6130    -0.0800    -1.1990 c5         1 E39       0.288800
     11 C6          -0.2620     1.2440    -1.1770 c5         1 E39      -0.033100
     12 C7           2.0280     0.2000    -0.7490 cc         1 E39      -0.216300
     13 C8           2.4540     0.5700     0.4980 cd         1 E39       0.263900
     14 C9          -2.4160     1.7170     0.2280 ca         1 E39       0.217000
     15 F1          -2.5350     2.9730    -0.2560 f          1 E39      -0.182000
     16 N1          -0.1150    -0.9810    -0.2650 nh         1 E39      -0.807400
     17 N2           3.1580     0.1140    -1.5340 na         1 E39      -0.305500
     18 N3           3.8300     0.7230     0.4950 nd         1 E39      -0.676000
     19 H1           1.1590    -3.7840     1.3130 hc         1 E39       0.044367
     20 H2           1.5860    -2.0870     1.5900 hc         1 E39       0.044367
     21 H3          -0.0220    -2.6840     2.0440 hc         1 E39       0.044367
     22 H4          -1.7020    -3.3810    -0.0240 hc         1 E39       0.044367
     23 H5          -1.0870    -3.1260    -1.6700 hc         1 E39       0.044367
     24 H6          -0.4040    -4.4080    -0.6540 hc         1 E39       0.044367
     25 H7           1.1360    -2.5580    -0.7760 h1         1 E39       0.026700
     26 H8          -4.1700     1.8650     1.4840 ha         1 E39       0.132000
     27 H10         -2.0660    -1.9020     1.6320 ha         1 E39       0.124000
     28 H11         -3.9480    -0.4580     2.3850 ha         1 E39       0.115000
     29 H12          0.6210    -0.5050    -2.2130 h1         1 E39       0.056700
     30 H13         -0.6630     1.4670    -2.1720 hc         1 E39       0.062700
     31 H14          0.3150     2.1190    -0.8570 hc         1 E39       0.062700
     32 H15          1.8570     0.7350     1.3870 h4         1 E39       0.046100
     33 H16          3.2120    -0.1420    -2.5130 hn         1 E39       0.346000
     34 H9           5.2500     0.4550    -1.1090 h5         1 E39       0.053100
@<TRIPOS>BOND
     1     1     3 1   
     2     1    19 1   
     3     1    20 1   
     4     1    21 1   
     5     2     3 1   
     6     2    22 1   
     7     2    23 1   
     8     2    24 1   
     9     3    16 1   
    10     3    25 1   
    11     4     9 ar  
    12     4    14 ar  
    13     4    26 1   
    14     5     7 ar  
    15     5    11 1   
    16     5    14 ar  
    17     6    17 1   
    18     6    18 2   
    19     6    34 1   
    20     7     8 ar  
    21     7    16 1   
    22     8     9 ar  
    23     8    27 1   
    24     9    28 1   
    25    10    11 1   
    26    10    12 1   
    27    10    16 1   
    28    10    29 1   
    29    11    30 1   
    30    11    31 1   
    31    12    13 2   
    32    12    17 1   
    33    13    18 1   
    34    13    32 1   
    35    14    15 1   
    36    17    33 1   
@<TRIPOS>SUBSTRUCTURE
     1 E39         1 TEMP              0 ****  ****    0 ROOT
