@<TRIPOS>MOLECULE
E39
   34    36     1     0     0
SMALL
bcc


@<TRIPOS>ATOM
      1 C4           1.2620    -3.2080     0.0080 c3         1 E39      -0.100100
      2 C3          -1.1960    -3.3570     0.3750 c3         1 E39      -0.100100
      3 C2          -0.0930    -2.6140    -0.3590 c3         1 E39       0.244500
      4 C1          -3.1270     1.5740     0.6560 ca         1 E39      -0.205000
      5 C10         -1.2010     0.7830    -0.5600 ca         1 E39      -0.199300
      6 C11          3.8360     1.1950     0.1610 cc         1 E39       0.389400
      7 C12         -1.1670    -0.3780     0.2210 ca         1 E39       0.192600
      8 C13         -2.1070    -0.5570     1.2360 ca         1 E39      -0.180000
      9 C14         -3.0780     0.4200     1.4270 ca         1 E39      -0.075000
     10 C5           0.7860    -0.3890    -1.0120 c5         1 E39       0.288800
     11 C6          -0.1050     0.7420    -1.5760 c5         1 E39      -0.033100
     12 C7           1.9480     0.1480    -0.2400 cc         1 E39      -0.230900
     13 C8           2.2420     0.1370     1.0950 cd         1 E39       0.329200
     14 C9          -2.1680     1.7290    -0.3320 ca         1 E39       0.181900
     15 F1          -2.1860     2.8330    -1.1010 f          1 E39      -0.146900
     16 N1          -0.0770    -1.1670    -0.1190 nh         1 E39      -0.669000
     17 N2           2.9810     0.8310    -0.8180 na         1 E39      -0.305900
     18 N3           3.4200     0.7920     1.3330 nd         1 E39      -0.676000
     19 H1           1.2840    -4.2700    -0.2370 hc         1 E39       0.044367
     20 H2           2.0820    -2.7280    -0.5260 hc         1 E39       0.044367
     21 H3           1.4480    -3.0980     1.0770 hc         1 E39       0.044367
     22 H4          -1.0820    -3.2880     1.4570 hc         1 E39       0.044367
     23 H5          -2.1920    -3.0120     0.1040 hc         1 E39       0.044367
     24 H6          -1.1320    -4.4120     0.1080 hc         1 E39       0.044367
     25 H7          -0.2580    -2.7780    -1.4340 h1         1 E39       0.026700
     26 H8          -3.8760     2.3350     0.8250 ha         1 E39       0.150000
     27 H10         -2.0820    -1.4170     1.8870 ha         1 E39       0.142000
     28 H11         -3.8070     0.2860     2.2160 ha         1 E39       0.133000
     29 H12          1.1490    -1.0210    -1.8290 h1         1 E39       0.056700
     30 H13         -0.4940     0.4850    -2.5650 hc         1 E39       0.062700
     31 H14          0.4390     1.6820    -1.6740 hc         1 E39       0.062700
     32 H15          1.6650    -0.3120     1.8880 h4         1 E39       0.046100
     33 H16          3.0990     1.0220    -1.8010 hn         1 E39       0.295700
     34 H9           4.7420     1.7460    -0.0420 h5         1 E39       0.053100
@<TRIPOS>BOND
     1     1     3 1   
     2     1    19 1   
     3     1    20 1   
     4     1    21 1   
     5     2     3 1   
     6     2    22 1   
     7     2    23 1   
     8     2    24 1   
     9     3    16 1   
    10     3    25 1   
    11     4     9 ar  
    12     4    14 ar  
    13     4    26 1   
    14     5     7 ar  
    15     5    11 1   
    16     5    14 ar  
    17     6    17 1   
    18     6    18 2   
    19     6    34 1   
    20     7     8 ar  
    21     7    16 1   
    22     8     9 ar  
    23     8    27 1   
    24     9    28 1   
    25    10    11 1   
    26    10    12 1   
    27    10    16 1   
    28    10    29 1   
    29    11    30 1   
    30    11    31 1   
    31    12    13 2   
    32    12    17 1   
    33    13    18 1   
    34    13    32 1   
    35    14    15 1   
    36    17    33 1   
@<TRIPOS>SUBSTRUCTURE
     1 E39         1 TEMP              0 ****  ****    0 ROOT
