@<TRIPOS>MOLECULE
E3B
   49    51     1     0     0
SMALL
No Charge or Current Charge


@<TRIPOS>ATOM
      1 CAA         -3.4410     4.7640     0.7130 c3         1 E3B      -0.095100
      2 CAB         -5.0700    -3.8830     0.1750 c3         1 E3B      -0.196100
      3 CAF          0.6000     2.4860    -1.7560 ca         1 E3B      -0.090000
      4 CAG         -0.6630     1.9630    -1.4400 ca         1 E3B      -0.107000
      5 CAH         -4.6480    -0.8970     0.3750 ca         1 E3B      -0.027000
      6 CAI          1.7560     1.9110    -1.2040 ca         1 E3B      -0.162000
      7 CAJ         -4.4770     0.4920     0.4770 ca         1 E3B      -0.226000
      8 CAK          0.3860     0.2930    -0.0270 ca         1 E3B      -0.129000
      9 CAL         -2.3300    -1.1210    -0.3210 ca         1 E3B      -0.012000
     10 CAM         -4.0490     3.3520     0.7080 c3         1 E3B       0.163600
     11 CAN          3.7660    -1.1960     2.0780 c6         1 E3B      -0.079400
     12 CAO          2.9370     0.0610     1.7080 c6         1 E3B       0.194800
     13 CAP          5.1690    -1.1640     1.4190 c6         1 E3B      -0.126400
     14 CAQ          4.1280     0.2310    -0.4980 c6         1 E3B       0.145800
     15 CAT         -3.5740    -1.7230    -0.0240 ca         1 E3B      -0.223600
     16 CAU         -0.7950     0.8590    -0.5640 cp         1 E3B       0.001000
     17 CAV          1.6600     0.8080    -0.3330 ca         1 E3B       0.284000
     18 CAW         -3.2320     1.0810     0.1790 ca         1 E3B       0.189100
     19 CAX         -2.1350     0.2790    -0.2320 cp         1 E3B      -0.092000
     20 CAZ          5.0420    -0.9690    -0.1100 c6         1 E3B       0.179000
     21 FAD          4.5430    -2.1510    -0.6930 f          1 E3B      -0.118000
     22 FAE          6.3230    -0.7730    -0.6570 f          1 E3B      -0.118000
     23 NAY          2.8150     0.2130     0.2290 nh         1 E3B      -0.780400
     24 OAC         -2.7810    -3.9260    -0.4900 o          1 E3B      -0.524100
     25 OAR         -3.0170     2.4410     0.3000 os         1 E3B      -0.338100
     26 H1          -2.6010     4.8200     1.4150 hc         1 E3B       0.049367
     27 H2          -3.0820     5.0330    -0.2870 hc         1 E3B       0.049367
     28 H3          -4.1940     5.5000     1.0170 hc         1 E3B       0.049367
     29 H4          -5.8480    -3.4260    -0.4470 hc         1 E3B       0.059367
     30 H5          -5.0470    -4.9720     0.0510 hc         1 E3B       0.059367
     31 H6          -5.3750    -3.6030     1.1890 hc         1 E3B       0.059367
     32 H7           0.6830     3.3370    -2.4290 ha         1 E3B       0.111000
     33 H8          -1.5490     2.4100    -1.8840 ha         1 E3B       0.119000
     34 H9          -5.6230    -1.3150     0.6140 ha         1 E3B       0.112000
     35 H10          2.7260     2.3340    -1.4500 ha         1 E3B       0.111000
     36 H11         -5.3230     1.0930     0.7960 ha         1 E3B       0.120000
     37 H12          0.3090    -0.5630     0.6370 ha         1 E3B       0.120000
     38 H13         -1.4940    -1.7420    -0.6390 ha         1 E3B       0.143000
     39 H14         -4.4120     3.1070     1.7140 h1         1 E3B       0.035200
     40 H15         -4.8950     3.3210     0.0080 h1         1 E3B       0.035200
     41 H16          3.8660    -1.2620     3.1700 hc         1 E3B       0.060700
     42 H17          3.2230    -2.0960     1.7610 hc         1 E3B       0.060700
     43 H18          1.9460    -0.0210     2.1780 h1         1 E3B       0.042700
     44 H19          3.4220     0.9520     2.1340 h1         1 E3B       0.042700
     45 H20          5.7560    -0.3400     1.8470 hc         1 E3B       0.067200
     46 H21          5.7160    -2.0900     1.6410 hc         1 E3B       0.067200
     47 H22          4.6610     1.1680    -0.2780 h1         1 E3B       0.060700
     48 H23          3.9620     0.1990    -1.5850 h1         1 E3B       0.060700
     49 CAS         -3.7250    -3.2270    -0.1430 c          1 E3B       0.590700
@<TRIPOS>BOND
     1     1    10 1   
     2     1    26 1   
     3     1    27 1   
     4     1    28 1   
     5     2    29 1   
     6     2    30 1   
     7     2    31 1   
     8     2    49 1   
     9     3     4 ar  
    10     3     6 ar  
    11     3    32 1   
    12     4    16 ar  
    13     4    33 1   
    14     5     7 ar  
    15     5    15 ar  
    16     5    34 1   
    17     6    17 ar  
    18     6    35 1   
    19     7    18 ar  
    20     7    36 1   
    21     8    16 ar  
    22     8    17 ar  
    23     8    37 1   
    24     9    15 ar  
    25     9    19 ar  
    26     9    38 1   
    27    10    25 1   
    28    10    39 1   
    29    10    40 1   
    30    11    12 1   
    31    11    13 1   
    32    11    41 1   
    33    11    42 1   
    34    12    23 1   
    35    12    43 1   
    36    12    44 1   
    37    13    20 1   
    38    13    45 1   
    39    13    46 1   
    40    14    20 1   
    41    14    23 1   
    42    14    47 1   
    43    14    48 1   
    44    15    49 1   
    45    16    19 1   
    46    17    23 1   
    47    18    19 ar  
    48    18    25 1   
    49    20    21 1   
    50    20    22 1   
    51    24    49 2   
@<TRIPOS>SUBSTRUCTURE
     1 E3B         1 TEMP              0 ****  ****    0 ROOT
