@<TRIPOS>MOLECULE
E3B
   49    51     1     0     0
SMALL
bcc


@<TRIPOS>ATOM
      1 CAA         -3.2040     4.6510     0.7980 c3         1 E3B      -0.095100
      2 CAB         -5.1300    -3.7400     0.1990 c3         1 E3B      -0.196100
      3 CAF          0.6030     2.2720    -1.9140 ca         1 E3B      -0.108000
      4 CAG         -0.6620     1.8270    -1.5830 ca         1 E3B      -0.125000
      5 CAH         -4.5930    -0.8470     0.4310 ca         1 E3B      -0.045000
      6 CAI          1.7380     1.7090    -1.3410 ca         1 E3B      -0.180000
      7 CAJ         -4.3730     0.5140     0.5650 ca         1 E3B      -0.244000
      8 CAK          0.3330     0.1960    -0.1280 ca         1 E3B      -0.147000
      9 CAL         -2.3800    -1.1270    -0.4260 ca         1 E3B      -0.030000
     10 CAM         -3.8140     3.2710     0.8090 c3         1 E3B       0.140400
     11 CAN          3.6910    -1.1820     2.0530 c6         1 E3B      -0.079400
     12 CAO          2.7360    -0.0900     1.6030 c6         1 E3B       0.194800
     13 CAP          5.0940    -0.9290     1.5140 c6         1 E3B      -0.126400
     14 CAQ          4.0260     0.3520    -0.3870 c6         1 E3B       0.145800
     15 CAT         -3.6060    -1.6900    -0.0640 ca         1 E3B      -0.223600
     16 CAU         -0.8020     0.7760    -0.6740 cp         1 E3B       0.001000
     17 CAV          1.6190     0.6530    -0.4380 ca         1 E3B       0.145600
     18 CAW         -3.1450     1.0630     0.2020 ca         1 E3B       0.189100
     19 CAX         -2.1280     0.2290    -0.3080 cp         1 E3B      -0.092000
     20 CAZ          5.0370    -0.6980     0.0300 c6         1 E3B       0.421600
     21 FAD          4.7350    -1.8790    -0.6120 f          1 E3B      -0.239300
     22 FAE          6.2660    -0.3360    -0.4470 f          1 E3B      -0.239300
     23 NAY          2.7270     0.0230     0.1470 nh         1 E3B      -0.642000
     24 OAC         -2.9190    -3.8560    -0.6580 o          1 E3B      -0.524100
     25 OAR         -2.8400     2.3560     0.3260 os         1 E3B      -0.314900
     26 H1          -2.3300     4.7050     1.4460 hc         1 E3B       0.049367
     27 H2          -2.9120     4.9480    -0.2090 hc         1 E3B       0.049367
     28 H3          -3.9380     5.3690     1.1610 hc         1 E3B       0.049367
     29 H4          -5.9540    -3.2940    -0.3590 hc         1 E3B       0.059367
     30 H5          -5.1370    -4.8130     0.0250 hc         1 E3B       0.059367
     31 H6          -5.3220    -3.5590     1.2580 hc         1 E3B       0.059367
     32 H7           0.7180     3.0830    -2.6200 ha         1 E3B       0.129000
     33 H8          -1.5300     2.2820    -2.0380 ha         1 E3B       0.137000
     34 H9          -5.5590    -1.2320     0.7290 ha         1 E3B       0.130000
     35 H10          2.7030     2.1210    -1.6030 ha         1 E3B       0.129000
     36 H11         -5.1670     1.1280     0.9670 ha         1 E3B       0.138000
     37 H12          0.2120    -0.6370     0.5550 ha         1 E3B       0.138000
     38 H13         -1.6050    -1.7700    -0.8250 ha         1 E3B       0.161000
     39 H14         -4.1200     2.9960     1.8230 h1         1 E3B       0.035200
     40 H15         -4.7060     3.2420     0.1740 h1         1 E3B       0.035200
     41 H16          3.7190    -1.2080     3.1420 hc         1 E3B       0.060700
     42 H17          3.3210    -2.1530     1.7200 hc         1 E3B       0.060700
     43 H18          1.7360    -0.3190     1.9610 h1         1 E3B       0.042700
     44 H19          3.0230     0.8690     2.0620 h1         1 E3B       0.042700
     45 H20          5.5100    -0.0320     1.9810 hc         1 E3B       0.067200
     46 H21          5.7700    -1.7540     1.7460 hc         1 E3B       0.067200
     47 H22          4.3940     1.3360    -0.0530 h1         1 E3B       0.060700
     48 H23          3.9850     0.3800    -1.4780 h1         1 E3B       0.060700
     49 CAS         -3.8030    -3.1570    -0.2180 c          1 E3B       0.590700
@<TRIPOS>BOND
     1     1    10 1   
     2     1    26 1   
     3     1    27 1   
     4     1    28 1   
     5     2    29 1   
     6     2    30 1   
     7     2    31 1   
     8     2    49 1   
     9     3     4 ar  
    10     3     6 ar  
    11     3    32 1   
    12     4    16 ar  
    13     4    33 1   
    14     5     7 ar  
    15     5    15 ar  
    16     5    34 1   
    17     6    17 ar  
    18     6    35 1   
    19     7    18 ar  
    20     7    36 1   
    21     8    16 ar  
    22     8    17 ar  
    23     8    37 1   
    24     9    15 ar  
    25     9    19 ar  
    26     9    38 1   
    27    10    25 1   
    28    10    39 1   
    29    10    40 1   
    30    11    12 1   
    31    11    13 1   
    32    11    41 1   
    33    11    42 1   
    34    12    23 1   
    35    12    43 1   
    36    12    44 1   
    37    13    20 1   
    38    13    45 1   
    39    13    46 1   
    40    14    20 1   
    41    14    23 1   
    42    14    47 1   
    43    14    48 1   
    44    15    49 1   
    45    16    19 1   
    46    17    23 1   
    47    18    19 ar  
    48    18    25 1   
    49    20    21 1   
    50    20    22 1   
    51    24    49 2   
@<TRIPOS>SUBSTRUCTURE
     1 E3B         1 TEMP              0 ****  ****    0 ROOT
