@<TRIPOS>MOLECULE
E3E
   37    41     1     0     0
SMALL
No Charge or Current Charge


@<TRIPOS>ATOM
      1 O           -3.9390    -1.8850    -0.6830 o          1 E3E      -0.476000
      2 C14         -3.1020    -1.0220    -0.4230 c          1 E3E       0.505500
      3 C15         -3.4280     0.4150    -0.1920 cc         1 E3E       0.337000
      4 N3          -2.4990     1.3730     0.0960 na         1 E3E      -0.032300
      5 C17         -3.0960     2.6030     0.2450 cc         1 E3E      -0.203000
      6 C16         -4.4290     2.3340     0.0570 cd         1 E3E       0.236900
      7 N2          -4.6350     0.9890    -0.2140 nd         1 E3E      -0.595000
      8 C2          -1.1320     1.0840     0.0960 ca         1 E3E      -0.010200
      9 C1          -0.1650     2.0940     0.2860 ca         1 E3E      -0.141000
     10 N1          -1.7120    -1.3150    -0.3030 n          1 E3E      -0.282000
     11 C11         -1.2660    -2.7170    -0.3480 cx         1 E3E       0.025700
     12 C13         -0.5040    -3.3720     0.7860 cx         1 E3E      -0.121900
     13 C12         -1.9040    -3.8250     0.4650 cx         1 E3E      -0.121900
     14 C3          -0.7190    -0.2580    -0.1260 ca         1 E3E       0.061600
     15 C4           0.6680    -0.5330    -0.1990 ca         1 E3E      -0.100000
     16 C5           1.6470     0.4730    -0.0170 cp         1 E3E      -0.056000
     17 C            1.2010     1.7920     0.2380 ca         1 E3E       0.180000
     18 F            2.0860     2.7910     0.4570 f          1 E3E      -0.164000
     19 C6           3.1010     0.1220    -0.0920 cp         1 E3E      -0.001000
     20 C10          3.6090    -1.0500     0.5140 ca         1 E3E      -0.146000
     21 C9           4.9760    -1.3570     0.4190 ca         1 E3E       0.335400
     22 N            5.8620    -0.5780    -0.2430 nb         1 E3E      -0.656000
     23 C8           5.3900     0.5440    -0.8350 ca         1 E3E       0.335400
     24 C7           4.0380     0.9240    -0.7860 ca         1 E3E      -0.146000
     25 H1          -2.5830     3.5290     0.4610 h4         1 E3E       0.166000
     26 H2          -5.2540     3.0350     0.0940 h4         1 E3E       0.048100
     27 H3          -0.4540     3.1230     0.4710 ha         1 E3E       0.146000
     28 H4          -0.9650    -2.9470    -1.3710 h1         1 E3E       0.095700
     29 H5           0.3170    -4.0350     0.5260 hc         1 E3E       0.084200
     30 H6          -0.3560    -2.7980     1.6970 hc         1 E3E       0.084200
     31 H7          -2.6880    -3.5620     1.1700 hc         1 E3E       0.084200
     32 H8          -2.0290    -4.7920    -0.0150 hc         1 E3E       0.084200
     33 H9           1.0170    -1.5360    -0.4220 ha         1 E3E       0.140000
     34 H10          2.9540    -1.7160     1.0680 ha         1 E3E       0.128000
     35 H11          5.3760    -2.2550     0.8880 h4         1 E3E       0.022600
     36 H12          6.1180     1.1540    -1.3680 h4         1 E3E       0.022600
     37 H13          3.7250     1.8290    -1.2970 ha         1 E3E       0.128000
@<TRIPOS>BOND
     1     1     2 2   
     2     2     3 1   
     3     2    10 1   
     4     3     4 1   
     5     3     7 2   
     6     4     5 1   
     7     4     8 1   
     8     5     6 2   
     9     5    25 1   
    10     6     7 1   
    11     6    26 1   
    12     8     9 ar  
    13     8    14 ar  
    14     9    17 ar  
    15     9    27 1   
    16    10    11 1   
    17    10    14 1   
    18    11    12 1   
    19    11    13 1   
    20    11    28 1   
    21    12    13 1   
    22    12    29 1   
    23    12    30 1   
    24    13    31 1   
    25    13    32 1   
    26    14    15 ar  
    27    15    16 ar  
    28    15    33 1   
    29    16    17 ar  
    30    16    19 1   
    31    17    18 1   
    32    19    20 ar  
    33    19    24 ar  
    34    20    21 ar  
    35    20    34 1   
    36    21    22 ar  
    37    21    35 1   
    38    22    23 ar  
    39    23    24 ar  
    40    23    36 1   
    41    24    37 1   
@<TRIPOS>SUBSTRUCTURE
     1 E3E         1 TEMP              0 ****  ****    0 ROOT
