@<TRIPOS>MOLECULE
E3E
   37    41     1     0     0
SMALL
abcg2


@<TRIPOS>ATOM
      1 O           -3.7930    -1.8250    -0.8360 o          1 E3E      -0.476000
      2 C14         -2.9810    -0.9880    -0.4990 c          1 E3E       0.505500
      3 C15         -3.3650     0.3930    -0.2260 cc         1 E3E       0.337000
      4 N3          -2.4420     1.3400     0.0940 na         1 E3E      -0.032300
      5 C17         -3.1210     2.5010     0.3160 cc         1 E3E      -0.203000
      6 C16         -4.4390     2.1860     0.1170 cd         1 E3E       0.236900
      7 N2          -4.5790     0.8790    -0.2210 nd         1 E3E      -0.595000
      8 C2          -1.0790     1.0670     0.0970 ca         1 E3E      -0.010200
      9 C1          -0.1410     2.0670     0.2960 ca         1 E3E      -0.141000
     10 N1          -1.6470    -1.2620    -0.3080 n          1 E3E      -0.282000
     11 C11         -1.2200    -2.6330    -0.4040 cx         1 E3E       0.025700
     12 C13         -0.4730    -3.2350     0.7500 cx         1 E3E      -0.121900
     13 C12         -1.8730    -3.6590     0.4600 cx         1 E3E      -0.121900
     14 C3          -0.6910    -0.2580    -0.1330 ca         1 E3E       0.061600
     15 C4           0.6730    -0.5310    -0.2050 ca         1 E3E      -0.100000
     16 C5           1.6350     0.4540    -0.0180 cp         1 E3E      -0.056000
     17 C            1.1940     1.7450     0.2440 ca         1 E3E       0.180000
     18 F            2.0900     2.7130     0.4670 f          1 E3E      -0.164000
     19 C6           3.0670     0.1050    -0.0860 cp         1 E3E      -0.001000
     20 C10          3.5490    -1.0150     0.5840 ca         1 E3E      -0.146000
     21 C9           4.8920    -1.3390     0.4770 ca         1 E3E       0.335400
     22 N            5.7620    -0.6340    -0.2360 nb         1 E3E      -0.656000
     23 C8           5.3010     0.4350    -0.8750 ca         1 E3E       0.335400
     24 C7           3.9790     0.8470    -0.8330 ca         1 E3E      -0.146000
     25 H1          -2.6400     3.4240     0.5860 h4         1 E3E       0.166000
     26 H2          -5.2860     2.8470     0.2070 h4         1 E3E       0.048100
     27 H3          -0.4390     3.0880     0.4910 ha         1 E3E       0.146000
     28 H4          -0.9210    -2.9350    -1.4020 h1         1 E3E       0.095700
     29 H5           0.3460    -3.9010     0.5150 hc         1 E3E       0.084200
     30 H6          -0.3140    -2.6150     1.6240 hc         1 E3E       0.084200
     31 H7          -2.6440    -3.3330     1.1450 hc         1 E3E       0.084200
     32 H8          -2.0510    -4.6300     0.0180 hc         1 E3E       0.084200
     33 H9           1.0070    -1.5300    -0.4430 ha         1 E3E       0.140000
     34 H10          2.8970    -1.6240     1.1970 ha         1 E3E       0.128000
     35 H11          5.2800    -2.2070     0.9990 h4         1 E3E       0.022600
     36 H12          6.0190     0.9980    -1.4600 h4         1 E3E       0.022600
     37 H13          3.6760     1.7180    -1.3970 ha         1 E3E       0.128000
@<TRIPOS>BOND
     1     1     2 2   
     2     2     3 1   
     3     2    10 1   
     4     3     4 1   
     5     3     7 2   
     6     4     5 1   
     7     4     8 1   
     8     5     6 2   
     9     5    25 1   
    10     6     7 1   
    11     6    26 1   
    12     8     9 ar  
    13     8    14 ar  
    14     9    17 ar  
    15     9    27 1   
    16    10    11 1   
    17    10    14 1   
    18    11    12 1   
    19    11    13 1   
    20    11    28 1   
    21    12    13 1   
    22    12    29 1   
    23    12    30 1   
    24    13    31 1   
    25    13    32 1   
    26    14    15 ar  
    27    15    16 ar  
    28    15    33 1   
    29    16    17 ar  
    30    16    19 1   
    31    17    18 1   
    32    19    20 ar  
    33    19    24 ar  
    34    20    21 ar  
    35    20    34 1   
    36    21    22 ar  
    37    21    35 1   
    38    22    23 ar  
    39    23    24 ar  
    40    23    36 1   
    41    24    37 1   
@<TRIPOS>SUBSTRUCTURE
     1 E3E         1 TEMP              0 ****  ****    0 ROOT
