@<TRIPOS>MOLECULE
E3F
   53    56     1     0     0
SMALL
abcg2


@<TRIPOS>ATOM
      1 C1          -4.6290    -7.4930   -20.7290 ca         1 E3F      -0.070000
      2 N1          -0.9190    -8.0070   -21.1460 n3         1 E3F      -0.728600
      3 O1          -2.7730    -7.0240   -15.3670 o          1 E3F      -0.552500
      4 C2          -3.3560    -7.6250   -21.2970 ca         1 E3F      -0.110300
      5 N2          -0.8420    -7.6010   -16.9340 n3         1 E3F      -0.788500
      6 O2          -2.3800    -9.3650   -16.0850 o          1 E3F      -0.552500
      7 C3          -3.1920    -7.2600   -22.6340 ca         1 E3F      -0.026300
      8 C4          -4.2700    -6.7480   -23.3650 ca         1 E3F      -0.196000
      9 C5          -5.5210    -6.6040   -22.7770 ca         1 E3F       0.138100
     10 C6          -5.6990    -6.9890   -21.4450 ca         1 E3F      -0.141000
     11 C7          -2.2100    -8.1950   -20.4800 c6         1 E3F       0.242800
     12 C8          -0.9710    -8.3960   -22.5480 c6         1 E3F       0.173800
     13 C9          -1.8560    -7.4260   -23.3100 c6         1 E3F      -0.032100
     14 C10         -2.1330    -7.5830   -19.0780 c6         1 E3F      -0.095400
     15 C11         -0.9930    -8.2080   -18.2720 c6         1 E3F       0.238500
     16 C12          0.3440    -8.1330   -19.0180 c6         1 E3F      -0.054700
     17 C13          0.1470    -8.6940   -20.4250 c6         1 E3F       0.171800
     18 C14         -0.3240    -6.2230   -16.8940 c6         1 E3F       0.218800
     19 C15          1.0270    -6.1710   -17.5950 c6         1 E3F      -0.078400
     20 C16          0.9280    -6.7190   -19.0170 c6         1 E3F      -0.065400
     21 C17         -0.7380    -8.2880   -14.3240 c3         1 E3F      -0.314400
     22 C18         -6.4840    -5.7020   -24.7730 c3         1 E3F       0.148900
     23 C19          0.3180    -9.3580   -14.5480 c3         1 E3F      -0.061100
     24 S1          -1.8330    -8.0730   -15.7220 s6         1 E3F       1.226100
     25 H1          -4.7940    -7.7920   -19.7020 ha         1 E3F       0.118000
     26 H3          -4.1110    -6.4760   -24.3990 ha         1 E3F       0.114000
     27 H4          -6.6770    -6.8900   -20.9910 ha         1 E3F       0.130000
     28 H5          -2.3960    -9.2820   -20.3590 h1         1 E3F       0.033700
     29 H6          -1.3500    -9.4270   -22.6640 h1         1 E3F       0.034200
     30 H7           0.0430    -8.3770   -22.9500 h1         1 E3F       0.034200
     31 H8          -1.3520    -6.4560   -23.3700 hc         1 E3F       0.056200
     32 H9          -2.0010    -7.7720   -24.3360 hc         1 E3F       0.056200
     33 H10         -1.9990    -6.5050   -19.1780 hc         1 E3F       0.060200
     34 H11         -3.0660    -7.7490   -18.5420 hc         1 E3F       0.060200
     35 H12         -1.2260    -9.2590   -18.1130 h1         1 E3F       0.081700
     36 H13          1.0470    -8.7890   -18.4950 hc         1 E3F       0.054700
     37 H14         -0.0640    -9.7770   -20.3570 h1         1 E3F       0.035700
     38 H15          1.0720    -8.5790   -20.9930 h1         1 E3F       0.035700
     39 H16         -0.2260    -5.9120   -15.8550 h1         1 E3F       0.048200
     40 H17         -1.0300    -5.5370   -17.3730 h1         1 E3F       0.048200
     41 H18          1.7480    -6.7580   -17.0180 hc         1 E3F       0.046700
     42 H19          1.3790    -5.1370   -17.6040 hc         1 E3F       0.046700
     43 H20          1.9150    -6.7390   -19.4850 hc         1 E3F       0.052700
     44 H21          0.3030    -6.0590   -19.6230 hc         1 E3F       0.052700
     45 H22         -0.3010    -7.3110   -14.1180 h1         1 E3F       0.095700
     46 H23         -1.4130    -8.5340   -13.5020 h1         1 E3F       0.095700
     47 H24         -7.4630    -5.3400   -25.0770 h1         1 E3F       0.041033
     48 H25         -5.7500    -4.8980   -24.8700 h1         1 E3F       0.041033
     49 H26         -6.1890    -6.5400   -25.4100 h1         1 E3F       0.041033
     50 H27          0.9340    -9.4440   -13.6520 hc         1 E3F       0.048033
     51 H28         -0.1410   -10.3270   -14.7440 hc         1 E3F       0.048033
     52 H29          0.9630    -9.0980   -15.3870 hc         1 E3F       0.048033
     53 O3          -6.6220    -6.1120   -23.4140 os         1 E3F      -0.349100
@<TRIPOS>BOND
     1     1     4 ar  
     2     1    10 ar  
     3     1    25 1   
     4     2    11 1   
     5     2    12 1   
     6     2    17 1   
     7     3    24 2   
     8     4     7 ar  
     9     4    11 1   
    10     5    15 1   
    11     5    18 1   
    12     5    24 1   
    13     6    24 2   
    14     7     8 ar  
    15     7    13 1   
    16     8     9 ar  
    17     8    26 1   
    18     9    10 ar  
    19     9    53 1   
    20    10    27 1   
    21    11    14 1   
    22    11    28 1   
    23    12    13 1   
    24    12    29 1   
    25    12    30 1   
    26    13    31 1   
    27    13    32 1   
    28    14    15 1   
    29    14    33 1   
    30    14    34 1   
    31    15    16 1   
    32    15    35 1   
    33    16    17 1   
    34    16    20 1   
    35    16    36 1   
    36    17    37 1   
    37    17    38 1   
    38    18    19 1   
    39    18    39 1   
    40    18    40 1   
    41    19    20 1   
    42    19    41 1   
    43    19    42 1   
    44    20    43 1   
    45    20    44 1   
    46    21    23 1   
    47    21    24 1   
    48    21    45 1   
    49    21    46 1   
    50    22    47 1   
    51    22    48 1   
    52    22    49 1   
    53    22    53 1   
    54    23    50 1   
    55    23    51 1   
    56    23    52 1   
@<TRIPOS>SUBSTRUCTURE
     1 E3F         1 TEMP              0 ****  ****    0 ROOT
