@<TRIPOS>MOLECULE
E3F
   53    56     1     0     0
SMALL
No Charge or Current Charge


@<TRIPOS>ATOM
      1 C1          -4.6270    -7.4670   -20.6810 ca         1 E3F      -0.070000
      2 N1          -0.8450    -7.9720   -21.2390 n3         1 E3F      -0.728600
      3 O1          -2.8860    -7.1360   -15.8290 o          1 E3F      -0.552500
      4 C2          -3.3620    -7.5930   -21.3010 ca         1 E3F      -0.110300
      5 N2          -0.6560    -7.8100   -16.9210 n3         1 E3F      -0.788500
      6 O2          -2.2910    -9.5930   -16.0840 o          1 E3F      -0.552500
      7 C3          -3.2410    -7.2380   -22.6670 ca         1 E3F      -0.026300
      8 C4          -4.3460    -6.7220   -23.3710 ca         1 E3F      -0.196000
      9 C5          -5.5930    -6.5750   -22.7320 ca         1 E3F       0.138100
     10 C6          -5.7260    -6.9560   -21.3910 ca         1 E3F      -0.141000
     11 C7          -2.1450    -8.1730   -20.5290 c6         1 E3F       0.242800
     12 C8          -0.9410    -8.3480   -22.6660 c6         1 E3F       0.173800
     13 C9          -1.9110    -7.4030   -23.3990 c6         1 E3F      -0.032100
     14 C10         -2.0200    -7.6270   -19.0780 c6         1 E3F      -0.095400
     15 C11         -0.8430    -8.3090   -18.3190 c6         1 E3F       0.238500
     16 C12          0.4820    -8.1800   -19.1190 c6         1 E3F      -0.054700
     17 C13          0.2740    -8.6840   -20.5680 c6         1 E3F       0.171800
     18 C14         -0.1640    -6.4100   -16.8500 c6         1 E3F       0.218800
     19 C15          1.1680    -6.2470   -17.6190 c6         1 E3F      -0.078400
     20 C16          1.0370    -6.7280   -19.0810 c6         1 E3F      -0.065400
     21 C17         -1.0480    -8.2270   -14.1940 c3         1 E3F      -0.314400
     22 C18         -6.6760    -5.6610   -24.7540 c3         1 E3F       0.148900
     23 C19          0.1800    -9.1690   -14.1420 c3         1 E3F      -0.061100
     24 S1          -1.8900    -8.2120   -15.7900 s6         1 E3F       1.226100
     25 H1          -4.7790    -7.7730   -19.6500 ha         1 E3F       0.118000
     26 H3          -4.2180    -6.4460   -24.4130 ha         1 E3F       0.114000
     27 H4          -6.6900    -6.8600   -20.8980 ha         1 E3F       0.130000
     28 H5          -2.3320    -9.2550   -20.4510 h1         1 E3F       0.033700
     29 H6          -1.2950    -9.3850   -22.7660 h1         1 E3F       0.034200
     30 H7           0.0430    -8.2890   -23.1540 h1         1 E3F       0.034200
     31 H8          -1.4380    -6.4170   -23.5050 hc         1 E3F       0.056200
     32 H9          -2.0800    -7.7770   -24.4170 hc         1 E3F       0.056200
     33 H10         -1.8960    -6.5390   -19.1120 hc         1 E3F       0.060200
     34 H11         -2.9440    -7.8180   -18.5250 hc         1 E3F       0.060200
     35 H12         -1.0700    -9.3860   -18.2850 h1         1 E3F       0.081700
     36 H13          1.2260    -8.8340   -18.6450 hc         1 E3F       0.054700
     37 H14          0.0740    -9.7660   -20.5460 h1         1 E3F       0.035700
     38 H15          1.2100    -8.5430   -21.1280 h1         1 E3F       0.035700
     39 H16          0.0140    -6.1140   -15.8060 h1         1 E3F       0.048200
     40 H17         -0.9100    -5.7100   -17.2530 h1         1 E3F       0.048200
     41 H18          1.9530    -6.8220   -17.1090 hc         1 E3F       0.046700
     42 H19          1.4850    -5.1950   -17.5950 hc         1 E3F       0.046700
     43 H20          2.0180    -6.6860   -19.5750 hc         1 E3F       0.052700
     44 H21          0.3810    -6.0450   -19.6370 hc         1 E3F       0.052700
     45 H22         -0.7510    -7.1940   -13.9890 h1         1 E3F       0.095700
     46 H23         -1.8010    -8.5350   -13.4610 h1         1 E3F       0.095700
     47 H24         -7.6640    -5.2980   -25.0640 h1         1 E3F       0.041033
     48 H25         -5.9540    -4.8470   -24.8980 h1         1 E3F       0.041033
     49 H26         -6.4000    -6.4970   -25.4080 h1         1 E3F       0.041033
     50 H27          0.6360    -9.1460   -13.1450 hc         1 E3F       0.048033
     51 H28         -0.1090   -10.2050   -14.3590 hc         1 E3F       0.048033
     52 H29          0.9420    -8.8640   -14.8690 hc         1 E3F       0.048033
     53 O3          -6.7080    -6.0780   -23.3770 os         1 E3F      -0.349100
@<TRIPOS>BOND
     1     1     4 ar  
     2     1    10 ar  
     3     1    25 1   
     4     2    11 1   
     5     2    12 1   
     6     2    17 1   
     7     3    24 2   
     8     4     7 ar  
     9     4    11 1   
    10     5    15 1   
    11     5    18 1   
    12     5    24 1   
    13     6    24 2   
    14     7     8 ar  
    15     7    13 1   
    16     8     9 ar  
    17     8    26 1   
    18     9    10 ar  
    19     9    53 1   
    20    10    27 1   
    21    11    14 1   
    22    11    28 1   
    23    12    13 1   
    24    12    29 1   
    25    12    30 1   
    26    13    31 1   
    27    13    32 1   
    28    14    15 1   
    29    14    33 1   
    30    14    34 1   
    31    15    16 1   
    32    15    35 1   
    33    16    17 1   
    34    16    20 1   
    35    16    36 1   
    36    17    37 1   
    37    17    38 1   
    38    18    19 1   
    39    18    39 1   
    40    18    40 1   
    41    19    20 1   
    42    19    41 1   
    43    19    42 1   
    44    20    43 1   
    45    20    44 1   
    46    21    23 1   
    47    21    24 1   
    48    21    45 1   
    49    21    46 1   
    50    22    47 1   
    51    22    48 1   
    52    22    49 1   
    53    22    53 1   
    54    23    50 1   
    55    23    51 1   
    56    23    52 1   
@<TRIPOS>SUBSTRUCTURE
     1 E3F         1 TEMP              0 ****  ****    0 ROOT
