@<TRIPOS>MOLECULE
E3G
   61    65     1     0     0
SMALL
No Charge or Current Charge


@<TRIPOS>ATOM
      1 C1          62.4040    24.9160     8.1070 c6         1 E3G       0.393300
      2 C2          62.9510    25.1000     6.6510 c6         1 E3G       0.145300
      3 C3          61.8850    25.8630     5.8140 c6         1 E3G       0.124300
      4 C4          60.5160    25.1160     5.8600 c6         1 E3G       0.137300
      5 C5          60.0820    24.8890     7.3400 c6         1 E3G      -0.011700
      6 C6          58.7020    24.1450     7.4040 c          1 E3G       0.733000
      7 C19         63.9920    23.1080    12.3740 ca         1 E3G      -0.088000
      8 C20         64.0990    23.2760    10.9850 ca         1 E3G      -0.150000
      9 C21         63.1670    24.0510    10.2850 ca         1 E3G       0.170100
     10 C22         62.1120    24.6610    10.9940 ca         1 E3G      -0.169000
     11 C23         61.9910    24.4960    12.3880 ca         1 E3G      -0.040300
     12 C24         60.8150    25.1880    13.0890 c6         1 E3G      -0.034100
     13 C7          60.5840    24.7280    14.5430 c6         1 E3G      -0.067400
     14 C8          61.9320    24.6350    15.2900 c6         1 E3G      -0.046700
     15 C9          62.8150    23.5210    14.6330 c6         1 E3G       0.000600
     16 C10         62.9500    23.7280    13.1010 ca         1 E3G      -0.119300
     17 C11         64.1760    23.3620    15.3970 c6         1 E3G      -0.071400
     18 C12         63.9940    23.1580    16.9340 c6         1 E3G      -0.052400
     19 C13         63.1160    24.2780    17.5680 c5         1 E3G      -0.153000
     20 C14         61.7590    24.3280    16.8020 c5         1 E3G      -0.057700
     21 C15         60.8870    25.2740    17.6830 c5         1 E3G      -0.067400
     22 C16         61.3630    24.9190    19.1340 c5         1 E3G      -0.192400
     23 C17         62.5790    23.9810    18.9830 c          1 E3G       0.581100
     24 C18         63.9390    25.6130    17.5950 c3         1 E3G      -0.078100
     25 O8          64.2120    25.8090     6.5870 oh         1 E3G      -0.722000
     26 O9          62.3200    26.0190     4.4520 oh         1 E3G      -0.682000
     27 O10         59.5260    25.8480     5.1070 oh         1 E3G      -0.791000
     28 O11         58.7320    22.9480     7.6660 o          1 E3G      -0.695500
     29 O12         57.7630    24.8250     7.8010 o          1 E3G      -0.695500
     30 O7          61.1530    24.1930     8.0540 os         1 E3G      -0.434000
     31 O20         63.3420    24.1830     8.9200 os         1 E3G      -0.330100
     32 O19         62.8400    23.0160    19.6910 o          1 E3G      -0.523100
     33 H1          62.2410    25.9090     8.5510 h2         1 E3G       0.028700
     34 H2          63.0700    24.0970     6.2160 h1         1 E3G       0.064700
     35 H3          61.7440    26.8560     6.2690 h1         1 E3G       0.035700
     36 H4          60.6560    24.1240     5.4030 h1         1 E3G       0.047700
     37 H5          59.9420    25.8670     7.8230 h1         1 E3G       0.026700
     38 H17         61.3710    25.2650    10.4790 ha         1 E3G       0.144000
     39 H61         60.9980    26.2720    13.0850 hc         1 E3G       0.055700
     40 H62         59.8920    25.0360    12.5130 hc         1 E3G       0.055700
     41 H71         59.9070    25.4340    15.0410 hc         1 E3G       0.039700
     42 H72         60.0820    23.7500    14.5500 hc         1 E3G       0.039700
     43 H8          62.4410    25.6030    15.1840 hc         1 E3G       0.054700
     44 H9          62.2810    22.5690    14.7580 hc         1 E3G       0.047700
     45 H111        64.7230    22.4890    15.0210 hc         1 E3G       0.043200
     46 H112        64.8190    24.2300    15.1970 hc         1 E3G       0.043200
     47 H121        63.5220    22.1810    17.1040 hc         1 E3G       0.046200
     48 H122        64.9750    23.1110    17.4280 hc         1 E3G       0.046200
     49 H14         61.2920    23.3340    16.8220 hc         1 E3G       0.047700
     50 H151        61.0670    26.3290    17.4460 hc         1 E3G       0.049700
     51 H152        59.8140    25.0930    17.5450 hc         1 E3G       0.049700
     52 H161        61.7060    25.8390    19.6190 hc         1 E3G       0.066700
     53 H162        60.6000    24.4560    19.7680 hc         1 E3G       0.066700
     54 H181        63.3810    26.4520    18.0240 hc         1 E3G       0.039700
     55 H182        64.8460    25.4960    18.2000 hc         1 E3G       0.039700
     56 H183        64.2590    25.9310    16.5970 hc         1 E3G       0.039700
     57 HO8         64.2520    26.1510     5.6610 ho         1 E3G       0.510000
     58 HO9         61.4870    26.1180     3.9330 ho         1 E3G       0.458000
     59 HO1         59.2450    26.6250     5.6530 ho         1 E3G       0.580000
     60 H10         64.7290    22.4830    12.8690 ha         1 E3G       0.099000
     61 H13         64.9120    22.7970    10.4450 ha         1 E3G       0.121000
@<TRIPOS>BOND
     1     1     2 1   
     2     1    30 1   
     3     1    31 1   
     4     1    33 1   
     5     2     3 1   
     6     2    25 1   
     7     2    34 1   
     8     3     4 1   
     9     3    26 1   
    10     3    35 1   
    11     4     5 1   
    12     4    27 1   
    13     4    36 1   
    14     5     6 1   
    15     5    30 1   
    16     5    37 1   
    17     6    28 1   
    18     6    29 1   
    19     7     8 ar  
    20     7    16 ar  
    21     7    60 1   
    22     8     9 ar  
    23     8    61 1   
    24     9    10 ar  
    25     9    31 1   
    26    10    11 ar  
    27    10    38 1   
    28    11    12 1   
    29    11    16 ar  
    30    12    13 1   
    31    12    39 1   
    32    12    40 1   
    33    13    14 1   
    34    13    41 1   
    35    13    42 1   
    36    14    15 1   
    37    14    20 1   
    38    14    43 1   
    39    15    16 1   
    40    15    17 1   
    41    15    44 1   
    42    17    18 1   
    43    17    45 1   
    44    17    46 1   
    45    18    19 1   
    46    18    47 1   
    47    18    48 1   
    48    19    20 1   
    49    19    23 1   
    50    19    24 1   
    51    20    21 1   
    52    20    49 1   
    53    21    22 1   
    54    21    50 1   
    55    21    51 1   
    56    22    23 1   
    57    22    52 1   
    58    22    53 1   
    59    23    32 2   
    60    24    54 1   
    61    24    55 1   
    62    24    56 1   
    63    25    57 1   
    64    26    58 1   
    65    27    59 1   
@<TRIPOS>SUBSTRUCTURE
     1 E3G         1 TEMP              0 ****  ****    0 ROOT
