@<TRIPOS>MOLECULE
E3G
   61    65     1     0     0
SMALL
abcg2


@<TRIPOS>ATOM
      1 C1          62.2390    24.8150     8.2310 c6         1 E3G       0.393300
      2 C2          62.9280    25.0080     6.8850 c6         1 E3G       0.145300
      3 C3          62.0500    25.8870     6.0030 c6         1 E3G       0.124300
      4 C4          60.6440    25.3130     5.9130 c6         1 E3G       0.137300
      5 C5          60.0990    25.1190     7.3350 c6         1 E3G      -0.011700
      6 C6          58.6680    24.5410     7.3380 c          1 E3G       0.733000
      7 C19         63.8330    23.0600    12.3640 ca         1 E3G      -0.088000
      8 C20         63.8800    23.1650    10.9870 ca         1 E3G      -0.150000
      9 C21         62.8720    23.8510    10.3150 ca         1 E3G       0.170100
     10 C22         61.8280    24.4020    11.0410 ca         1 E3G      -0.169000
     11 C23         61.7900    24.2990    12.4340 ca         1 E3G      -0.040300
     12 C24         60.6250    24.9340    13.1510 c6         1 E3G      -0.034100
     13 C7          60.5070    24.5090    14.6060 c6         1 E3G      -0.067400
     14 C8          61.8740    24.5590    15.2700 c6         1 E3G      -0.046700
     15 C9          62.7810    23.4930    14.6330 c6         1 E3G       0.000600
     16 C10         62.8070    23.6300    13.1210 ca         1 E3G      -0.119300
     17 C11         64.1790    23.4730    15.2710 c6         1 E3G      -0.071400
     18 C12         64.1310    23.3320    16.7950 c6         1 E3G      -0.052400
     19 C13         63.2330    24.3990    17.3990 c5         1 E3G      -0.153000
     20 C14         61.8380    24.3140    16.7660 c5         1 E3G      -0.057700
     21 C15         60.9610    25.1730    17.6770 c5         1 E3G      -0.067400
     22 C16         61.4830    24.8150    19.0760 c5         1 E3G      -0.192400
     23 C17         62.8880    24.2610    18.8670 c          1 E3G       0.581100
     24 C18         63.8810    25.7930    17.2790 c3         1 E3G      -0.078100
     25 O8          64.1850    25.5850     7.1210 oh         1 E3G      -0.722000
     26 O9          62.6860    25.9750     4.7480 oh         1 E3G      -0.682000
     27 O10         59.8380    26.1840     5.1700 oh         1 E3G      -0.791000
     28 O11         58.3710    23.6910     8.1780 o          1 E3G      -0.695500
     29 O12         57.9110    25.0370     6.4600 o          1 E3G      -0.695500
     30 O7          60.9640    24.2730     8.0620 os         1 E3G      -0.434000
     31 O20         62.9960    23.9090     8.9630 os         1 E3G      -0.330100
     32 O19         63.5950    23.7970    19.7280 o          1 E3G      -0.523100
     33 H1          62.1800    25.7860     8.7570 h2         1 E3G       0.028700
     34 H2          63.0220    24.0190     6.4080 h1         1 E3G       0.064700
     35 H3          61.9770    26.8810     6.4740 h1         1 E3G       0.035700
     36 H4          60.7060    24.3180     5.4370 h1         1 E3G       0.047700
     37 H5          60.0490    26.1120     7.8180 h1         1 E3G       0.026700
     38 H17         61.0080    24.9070    10.5460 ha         1 E3G       0.144000
     39 H61         60.7400    26.0230    13.1060 hc         1 E3G       0.055700
     40 H62         59.7020    24.7120    12.6100 hc         1 E3G       0.055700
     41 H71         59.7980    25.1630    15.1170 hc         1 E3G       0.039700
     42 H72         60.1070    23.4920    14.6780 hc         1 E3G       0.039700
     43 H8          62.3010    25.5520    15.0750 hc         1 E3G       0.054700
     44 H9          62.3180    22.5230    14.8680 hc         1 E3G       0.047700
     45 H111        64.7580    22.6370    14.8770 hc         1 E3G       0.043200
     46 H112        64.7220    24.3790    14.9860 hc         1 E3G       0.043200
     47 H121        63.7380    22.3420    17.0480 hc         1 E3G       0.046200
     48 H122        65.1430    23.3860    17.2030 hc         1 E3G       0.046200
     49 H14         61.5010    23.2750    16.9060 hc         1 E3G       0.047700
     50 H151        61.0880    26.2370    17.4650 hc         1 E3G       0.049700
     51 H152        59.9000    24.9500    17.5680 hc         1 E3G       0.049700
     52 H161        61.5010    25.6520    19.7760 hc         1 E3G       0.066700
     53 H162        60.8750    24.0340    19.5410 hc         1 E3G       0.066700
     54 H181        63.2930    26.5800    17.7530 hc         1 E3G       0.039700
     55 H182        64.8600    25.7810    17.7610 hc         1 E3G       0.039700
     56 H183        64.0290    26.0840    16.2410 hc         1 E3G       0.039700
     57 HO8         64.5640    25.8280     6.2700 ho         1 E3G       0.510000
     58 HO9         62.2570    26.6670     4.2360 ho         1 E3G       0.458000
     59 HO1         58.9250    25.9180     5.4390 ho         1 E3G       0.580000
     60 H10         64.6300    22.5170    12.8540 ha         1 E3G       0.099000
     61 H13         64.6950    22.7220    10.4300 ha         1 E3G       0.121000
@<TRIPOS>BOND
     1     1     2 1   
     2     1    30 1   
     3     1    31 1   
     4     1    33 1   
     5     2     3 1   
     6     2    25 1   
     7     2    34 1   
     8     3     4 1   
     9     3    26 1   
    10     3    35 1   
    11     4     5 1   
    12     4    27 1   
    13     4    36 1   
    14     5     6 1   
    15     5    30 1   
    16     5    37 1   
    17     6    28 1   
    18     6    29 1   
    19     7     8 ar  
    20     7    16 ar  
    21     7    60 1   
    22     8     9 ar  
    23     8    61 1   
    24     9    10 ar  
    25     9    31 1   
    26    10    11 ar  
    27    10    38 1   
    28    11    12 1   
    29    11    16 ar  
    30    12    13 1   
    31    12    39 1   
    32    12    40 1   
    33    13    14 1   
    34    13    41 1   
    35    13    42 1   
    36    14    15 1   
    37    14    20 1   
    38    14    43 1   
    39    15    16 1   
    40    15    17 1   
    41    15    44 1   
    42    17    18 1   
    43    17    45 1   
    44    17    46 1   
    45    18    19 1   
    46    18    47 1   
    47    18    48 1   
    48    19    20 1   
    49    19    23 1   
    50    19    24 1   
    51    20    21 1   
    52    20    49 1   
    53    21    22 1   
    54    21    50 1   
    55    21    51 1   
    56    22    23 1   
    57    22    52 1   
    58    22    53 1   
    59    23    32 2   
    60    24    54 1   
    61    24    55 1   
    62    24    56 1   
    63    25    57 1   
    64    26    58 1   
    65    27    59 1   
@<TRIPOS>SUBSTRUCTURE
     1 E3G         1 TEMP              0 ****  ****    0 ROOT
