@<TRIPOS>MOLECULE
E3H
   61    64     1     0     0
SMALL
No Charge or Current Charge


@<TRIPOS>ATOM
      1 CAA         -1.0160     4.4780     2.8330 c3         1 E3H      -0.095100
      2 CAB          0.7660    -7.1240    -0.5930 c3         1 E3H      -0.125100
      3 CAC         -5.2860    -1.3330    -2.5760 c3         1 E3H      -0.197100
      4 CAD          3.0960    -2.8960     1.9100 c3         1 E3H      -0.054900
      5 CAH          6.1130     4.4050    -0.8280 cc         1 E3H      -0.200000
      6 CAI          4.8880     4.9030    -1.1820 cd         1 E3H       0.149900
      7 CAJ          5.8930     3.1030    -0.3380 cc         1 E3H      -0.097000
      8 CAK         -5.1060     1.9000    -0.3670 ca         1 E3H      -0.009000
      9 CAL         -4.1990     2.6170     0.4290 ca         1 E3H      -0.226000
     10 CAM          0.0810     1.3070    -0.1350 ca         1 E3H      -0.133000
     11 CAN          1.5920    -0.5480     0.2650 ca         1 E3H      -0.127000
     12 CAO         -0.8030    -0.8990     0.3370 ca         1 E3H      -0.100000
     13 CAP         -3.3730     0.2720    -0.8690 ca         1 E3H      -0.021000
     14 CAQ         -2.2790     4.0380     2.0770 c3         1 E3H       0.164600
     15 CAR          0.0020    -6.4500     0.5620 c3         1 E3H       0.106000
     16 CAX          3.8280     1.6430    -0.0200 c          1 E3H       0.549600
     17 CAY          1.3910     0.8190    -0.0200 ca         1 E3H      -0.028000
     18 CAZ         -4.7060     0.7170    -1.0240 ca         1 E3H      -0.222600
     19 CBA         -1.0380     0.4650     0.0490 cp         1 E3H       0.006000
     20 CBB          0.5010    -1.4250     0.4530 ca         1 E3H       0.016200
     21 CBC          1.8400    -3.4640     1.3060 cc         1 E3H       0.125900
     22 CBD         -2.8730     2.1650     0.5780 ca         1 E3H       0.189100
     23 CBE          4.5430     2.8880    -0.4250 cd         1 E3H       0.044500
     24 CBF         -2.4370     0.9830    -0.0770 cp         1 E3H      -0.096000
     25 CBG          0.7080    -2.8650     0.7570 cd         1 E3H      -0.245400
     26 CBH         -0.2270    -3.9260     0.3750 c          1 E3H       0.553200
     27 NBI          0.4300    -5.0610     0.7930 n          1 E3H      -0.259300
     28 OAE         -6.8540     0.3700    -2.0070 o          1 E3H      -0.536100
     29 OAF          4.3960     0.6600     0.4490 o          1 E3H      -0.582100
     30 OAG         -1.3030    -3.8690    -0.2040 o          1 E3H      -0.532000
     31 OAT         -1.9600     2.8240     1.3790 os         1 E3H      -0.343100
     32 OAU          3.8850     3.9870    -0.9460 os         1 E3H      -0.243000
     33 OAV          1.6940    -4.8390     1.3610 os         1 E3H      -0.109200
     34 H1          -0.1890     4.6560     2.1340 hc         1 E3H       0.049033
     35 H2          -1.2070     5.4070     3.3830 hc         1 E3H       0.049033
     36 H3          -0.7080     3.7090     3.5520 hc         1 E3H       0.049033
     37 H4           1.8410    -7.1510    -0.3820 hc         1 E3H       0.047700
     38 H5           0.4150    -8.1530    -0.7320 hc         1 E3H       0.047700
     39 H6           0.6090    -6.5750    -1.5290 hc         1 E3H       0.047700
     40 H7          -4.4190    -1.1280    -3.2130 hc         1 E3H       0.063033
     41 H8          -4.8820    -2.0300    -1.8330 hc         1 E3H       0.063033
     42 H9          -6.1030    -1.7870    -3.1480 hc         1 E3H       0.063033
     43 H10          3.5240    -3.5900     2.6430 hc         1 E3H       0.072367
     44 H11          3.8560    -2.7160     1.1410 hc         1 E3H       0.072367
     45 H12          2.8940    -1.9530     2.4310 hc         1 E3H       0.072367
     46 H14          4.6050     5.8610    -1.5990 h4         1 E3H       0.057100
     47 H15          6.6500     2.4170     0.0320 ha         1 E3H       0.159000
     48 H16         -6.1250     2.2700    -0.4660 ha         1 E3H       0.133000
     49 H17         -4.5480     3.5180     0.9250 ha         1 E3H       0.120000
     50 H18         -0.0790     2.3560    -0.3760 ha         1 E3H       0.118000
     51 H19          2.5960    -0.9430     0.2890 ha         1 E3H       0.141000
     52 H20         -1.6620    -1.5390     0.5070 ha         1 E3H       0.132000
     53 H21         -3.0310    -0.6300    -1.3700 ha         1 E3H       0.129000
     54 H22         -3.0960     3.8750     2.7920 h1         1 E3H       0.037200
     55 H23         -2.5760     4.8260     1.3720 h1         1 E3H       0.037200
     56 H24         -1.0740    -6.4650     0.3440 h1         1 E3H       0.073700
     57 H25          0.1620    -7.0230     1.4850 h1         1 E3H       0.073700
     58 CAW         -5.7070    -0.0400    -1.8740 c          1 E3H       0.591700
     59 NAS          2.4570     1.7380    -0.2270 ns         1 E3H      -0.136000
     60 H13          7.0720     4.9070    -0.9050 ha         1 E3H       0.149000
     61 H26          2.1620     2.6330    -0.5960 hn         1 E3H       0.165000
@<TRIPOS>BOND
     1     1    14 1   
     2     1    34 1   
     3     1    35 1   
     4     1    36 1   
     5     2    15 1   
     6     2    37 1   
     7     2    38 1   
     8     2    39 1   
     9     3    40 1   
    10     3    41 1   
    11     3    42 1   
    12     3    58 1   
    13     4    21 1   
    14     4    43 1   
    15     4    44 1   
    16     4    45 1   
    17     5     6 2   
    18     5     7 1   
    19     5    60 1   
    20     6    32 1   
    21     6    46 1   
    22     7    23 2   
    23     7    47 1   
    24     8     9 ar  
    25     8    18 ar  
    26     8    48 1   
    27     9    22 ar  
    28     9    49 1   
    29    10    17 ar  
    30    10    19 ar  
    31    10    50 1   
    32    11    17 ar  
    33    11    20 ar  
    34    11    51 1   
    35    12    19 ar  
    36    12    20 ar  
    37    12    52 1   
    38    13    18 ar  
    39    13    24 ar  
    40    13    53 1   
    41    14    31 1   
    42    14    54 1   
    43    14    55 1   
    44    15    27 1   
    45    15    56 1   
    46    15    57 1   
    47    16    23 1   
    48    16    29 2   
    49    16    59 1   
    50    17    59 1   
    51    18    58 1   
    52    19    24 1   
    53    20    25 1   
    54    21    25 2   
    55    21    33 1   
    56    22    24 ar  
    57    22    31 1   
    58    23    32 1   
    59    25    26 1   
    60    26    27 1   
    61    26    30 2   
    62    27    33 1   
    63    28    58 2   
    64    59    61 1   
@<TRIPOS>SUBSTRUCTURE
     1 E3H         1 TEMP              0 ****  ****    0 ROOT
