@<TRIPOS>MOLECULE
E3H
   61    64     1     0     0
SMALL
abcg2


@<TRIPOS>ATOM
      1 CAA         -1.0150     4.4850     2.7470 c3         1 E3H      -0.095100
      2 CAB          1.2430    -6.6280    -0.8060 c3         1 E3H      -0.125100
      3 CAC         -5.2560    -1.2810    -2.4060 c3         1 E3H      -0.197100
      4 CAD          2.7090    -2.8360     2.3060 c3         1 E3H      -0.054900
      5 CAH          6.1590     4.0980    -0.9170 cc         1 E3H      -0.200000
      6 CAI          4.9640     4.6230    -1.2870 cd         1 E3H       0.149900
      7 CAJ          5.8760     2.8020    -0.4060 cc         1 E3H      -0.097000
      8 CAK         -5.0790     1.9030    -0.2640 ca         1 E3H      -0.009000
      9 CAL         -4.1760     2.6140     0.5020 ca         1 E3H      -0.226000
     10 CAM          0.0310     1.2770    -0.1550 ca         1 E3H      -0.133000
     11 CAN          1.5140    -0.5870     0.2020 ca         1 E3H      -0.127000
     12 CAO         -0.8720    -0.8730     0.4090 ca         1 E3H      -0.100000
     13 CAP         -3.3850     0.2940    -0.7730 ca         1 E3H      -0.021000
     14 CAQ         -2.2570     4.0100     2.0320 c3         1 E3H       0.164600
     15 CAR          0.2590    -6.3760     0.3250 c3         1 E3H       0.106000
     16 CAX          3.6910     1.4980    -0.1330 c          1 E3H       0.549600
     17 CAY          1.3230     0.7610    -0.0950 ca         1 E3H      -0.028000
     18 CAZ         -4.7030     0.7280    -0.9120 ca         1 E3H      -0.222600
     19 CBA         -1.0720     0.4670     0.0920 cp         1 E3H       0.006000
     20 CBB          0.4150    -1.4020     0.4650 ca         1 E3H       0.016200
     21 CBC          1.5830    -3.3910     1.5260 cc         1 E3H       0.125900
     22 CBD         -2.8610     2.1640     0.6390 ca         1 E3H       0.189100
     23 CBE          4.5300     2.6420    -0.5060 cd         1 E3H       0.044500
     24 CBF         -2.4520     0.9890    -0.0190 cp         1 E3H      -0.096000
     25 CBG          0.6120    -2.8140     0.7830 cd         1 E3H      -0.245400
     26 CBH         -0.2110    -3.9010     0.2780 c          1 E3H       0.553200
     27 NBI          0.3110    -5.0320     0.8520 n          1 E3H      -0.259300
     28 OAE         -6.8400     0.3870    -1.8240 o          1 E3H      -0.536100
     29 OAF          4.2000     0.5070     0.3620 o          1 E3H      -0.582100
     30 OAG         -1.1690    -3.8960    -0.4810 o          1 E3H      -0.532000
     31 OAT         -1.9430     2.7790     1.3860 os         1 E3H      -0.343100
     32 OAU          3.9730     3.7510    -1.0420 os         1 E3H      -0.243000
     33 OAV          1.4520    -4.7260     1.5540 os         1 E3H      -0.109200
     34 H1          -0.1860     4.6230     2.0530 hc         1 E3H       0.049033
     35 H2          -1.2190     5.4430     3.2230 hc         1 E3H       0.049033
     36 H3          -0.7080     3.7840     3.5230 hc         1 E3H       0.049033
     37 H4           2.2740    -6.5030    -0.4780 hc         1 E3H       0.047700
     38 H5           1.1300    -7.6500    -1.1670 hc         1 E3H       0.047700
     39 H6           1.0600    -5.9550    -1.6440 hc         1 E3H       0.047700
     40 H7          -4.4400    -1.0860    -3.1030 hc         1 E3H       0.063033
     41 H8          -4.8900    -2.0080    -1.6790 hc         1 E3H       0.063033
     42 H9          -6.0850    -1.7240    -2.9530 hc         1 E3H       0.063033
     43 H10          2.8760    -3.4110     3.2160 hc         1 E3H       0.072367
     44 H11          3.6330    -2.8550     1.7260 hc         1 E3H       0.072367
     45 H12          2.5060    -1.8030     2.5800 hc         1 E3H       0.072367
     46 H14          4.6810     5.5680    -1.7220 h4         1 E3H       0.057100
     47 H15          6.5800     2.0830    -0.0200 ha         1 E3H       0.159000
     48 H16         -6.0930     2.2690    -0.3540 ha         1 E3H       0.133000
     49 H17         -4.5090     3.5160     0.9970 ha         1 E3H       0.120000
     50 H18         -0.1110     2.3180    -0.4150 ha         1 E3H       0.118000
     51 H19          2.5040    -1.0120     0.2030 ha         1 E3H       0.141000
     52 H20         -1.7230    -1.5040     0.6290 ha         1 E3H       0.132000
     53 H21         -3.0540    -0.6070    -1.2740 ha         1 E3H       0.129000
     54 H22         -3.0790     3.8650     2.7390 h1         1 E3H       0.037200
     55 H23         -2.5790     4.7480     1.2910 h1         1 E3H       0.037200
     56 H24         -0.7660    -6.5150    -0.0140 h1         1 E3H       0.073700
     57 H25          0.4120    -7.0710     1.1510 h1         1 E3H       0.073700
     58 CAW         -5.6980    -0.0150    -1.7220 c          1 E3H       0.591700
     59 NAS          2.3650     1.6490    -0.3830 ns         1 E3H      -0.136000
     60 H13          7.1210     4.5750    -1.0010 ha         1 E3H       0.149000
     61 H26          2.0690     2.5370    -0.7580 hn         1 E3H       0.165000
@<TRIPOS>BOND
     1     1    14 1   
     2     1    34 1   
     3     1    35 1   
     4     1    36 1   
     5     2    15 1   
     6     2    37 1   
     7     2    38 1   
     8     2    39 1   
     9     3    40 1   
    10     3    41 1   
    11     3    42 1   
    12     3    58 1   
    13     4    21 1   
    14     4    43 1   
    15     4    44 1   
    16     4    45 1   
    17     5     6 2   
    18     5     7 1   
    19     5    60 1   
    20     6    32 1   
    21     6    46 1   
    22     7    23 2   
    23     7    47 1   
    24     8     9 ar  
    25     8    18 ar  
    26     8    48 1   
    27     9    22 ar  
    28     9    49 1   
    29    10    17 ar  
    30    10    19 ar  
    31    10    50 1   
    32    11    17 ar  
    33    11    20 ar  
    34    11    51 1   
    35    12    19 ar  
    36    12    20 ar  
    37    12    52 1   
    38    13    18 ar  
    39    13    24 ar  
    40    13    53 1   
    41    14    31 1   
    42    14    54 1   
    43    14    55 1   
    44    15    27 1   
    45    15    56 1   
    46    15    57 1   
    47    16    23 1   
    48    16    29 2   
    49    16    59 1   
    50    17    59 1   
    51    18    58 1   
    52    19    24 1   
    53    20    25 1   
    54    21    25 2   
    55    21    33 1   
    56    22    24 ar  
    57    22    31 1   
    58    23    32 1   
    59    25    26 1   
    60    26    27 1   
    61    26    30 2   
    62    27    33 1   
    63    28    58 2   
    64    59    61 1   
@<TRIPOS>SUBSTRUCTURE
     1 E3H         1 TEMP              0 ****  ****    0 ROOT
