@<TRIPOS>MOLECULE
E3J
   36    37     1     0     0
SMALL
No Charge or Current Charge


@<TRIPOS>ATOM
      1 C10         11.2000   -34.7080    16.2240 c6         1 E3J       0.153100
      2 C13          7.3960   -37.7920    12.5570 ca         1 E3J      -0.079000
      3 C15          6.7690   -38.2750    10.2620 ca         1 E3J      -0.084000
      4 C02          5.7020   -37.6540    14.4510 c          1 E3J       0.610700
      5 C04          6.5780   -36.7740    16.6480 c3         1 E3J       0.102000
      6 C05          7.9800   -36.5780    17.2740 c3         1 E3J       0.148800
      7 C07          8.3550   -34.2430    16.4470 c6         1 E3J       0.125800
      8 C14          7.7530   -37.9910    11.2150 ca         1 E3J      -0.121000
      9 C16          5.4280   -38.3610    10.6570 ca         1 E3J      -0.103000
     10 C08          9.3200   -33.3150    15.6500 c6         1 E3J       0.153100
     11 C11         10.2760   -35.6630    17.0360 c6         1 E3J       0.125800
     12 C12          6.0420   -37.8730    12.9810 ca         1 E3J      -0.154600
     13 C17          5.0480   -38.1670    11.9990 ca         1 E3J      -0.025000
     14 N03          6.6770   -37.0580    15.2150 ns         1 E3J      -0.489900
     15 N06          8.8710   -35.6500    16.5210 n3         1 E3J      -0.738600
     16 O01          4.6460   -38.0010    14.9620 o          1 E3J      -0.624100
     17 O09         10.6520   -33.3680    16.2140 os         1 E3J      -0.446000
     18 S18          3.2970   -38.2770    12.3550 sh         1 E3J      -0.215800
     19 H1          11.2970   -35.0690    15.1900 h1         1 E3J       0.052200
     20 H2          12.2030   -34.6840    16.6740 h1         1 E3J       0.052200
     21 H4           7.0440   -38.4290     9.2210 ha         1 E3J       0.118000
     22 H5           5.9780   -35.8660    16.7870 h1         1 E3J       0.053700
     23 H6           6.0690   -37.6030    17.1570 h1         1 E3J       0.053700
     24 H7           8.4550   -37.5670    17.3230 h1         1 E3J       0.043700
     25 H8           7.8570   -36.2320    18.3090 h1         1 E3J       0.043700
     26 H9           8.2270   -33.8300    17.4590 h1         1 E3J       0.044450
     27 H10          7.3700   -34.2130    15.9600 h1         1 E3J       0.044450
     28 H11          8.7970   -37.9280    10.9150 ha         1 E3J       0.118000
     29 H12          4.6680   -38.5800     9.9090 ha         1 E3J       0.130000
     30 H13          9.3590   -33.6320    14.5970 h1         1 E3J       0.052200
     31 H14          8.9560   -32.2790    15.6820 h1         1 E3J       0.052200
     32 H15         10.6910   -36.6810    16.9860 h1         1 E3J       0.044450
     33 H16         10.2980   -35.3590    18.0930 h1         1 E3J       0.044450
     34 H17          7.5260   -36.7660    14.7480 hn         1 E3J       0.341500
     35 H19          3.4340   -38.2650    13.7060 hs         1 E3J       0.256800
     36 H3           8.1980   -37.5930    13.2640 ha         1 E3J       0.117000
@<TRIPOS>BOND
     1     1    11 1   
     2     1    17 1   
     3     1    19 1   
     4     1    20 1   
     5     2     8 ar  
     6     2    12 ar  
     7     2    36 1   
     8     3     8 ar  
     9     3     9 ar  
    10     3    21 1   
    11     4    12 1   
    12     4    14 1   
    13     4    16 2   
    14     5     6 1   
    15     5    14 1   
    16     5    22 1   
    17     5    23 1   
    18     6    15 1   
    19     6    24 1   
    20     6    25 1   
    21     7    10 1   
    22     7    15 1   
    23     7    26 1   
    24     7    27 1   
    25     8    28 1   
    26     9    13 ar  
    27     9    29 1   
    28    10    17 1   
    29    10    30 1   
    30    10    31 1   
    31    11    15 1   
    32    11    32 1   
    33    11    33 1   
    34    12    13 ar  
    35    13    18 1   
    36    14    34 1   
    37    18    35 1   
@<TRIPOS>SUBSTRUCTURE
     1 E3J         1 TEMP              0 ****  ****    0 ROOT
