@<TRIPOS>MOLECULE
E3J
   36    37     1     0     0
SMALL
abcg2


@<TRIPOS>ATOM
      1 C10         10.8810   -34.5450    15.8860 c6         1 E3J       0.153100
      2 C13          7.4550   -38.4710    12.7430 ca         1 E3J      -0.079000
      3 C15          6.9360   -38.3620    10.4110 ca         1 E3J      -0.084000
      4 C02          5.8730   -37.7460    14.5210 c          1 E3J       0.610700
      5 C04          6.7200   -36.9560    16.6800 c3         1 E3J       0.102000
      6 C05          8.0940   -36.6310    17.2480 c3         1 E3J       0.148800
      7 C07          8.1860   -34.2970    16.5960 c6         1 E3J       0.125800
      8 C14          7.8220   -38.6900    11.4250 ca         1 E3J      -0.121000
      9 C16          5.6900   -37.8400    10.7200 ca         1 E3J      -0.103000
     10 C08          8.9200   -33.3180    15.7000 c6         1 E3J       0.153100
     11 C11         10.1970   -35.5520    16.7900 c6         1 E3J       0.125800
     12 C12          6.2120   -37.9300    13.0730 ca         1 E3J      -0.154600
     13 C17          5.3090   -37.6290    12.0440 ca         1 E3J      -0.025000
     14 N03          6.8410   -37.1950    15.2600 ns         1 E3J      -0.489900
     15 N06          8.7810   -35.6180    16.4730 n3         1 E3J      -0.738600
     16 O01          4.7950   -38.1000    14.9870 o          1 E3J      -0.624100
     17 O09         10.2960   -33.2670    15.9970 os         1 E3J      -0.446000
     18 S18          3.7250   -36.8740    12.2640 sh         1 E3J      -0.215800
     19 H1          10.8310   -34.9010    14.8470 h1         1 E3J       0.052200
     20 H2          11.9330   -34.4490    16.1580 h1         1 E3J       0.052200
     21 H4           7.2040   -38.5220     9.3750 ha         1 E3J       0.118000
     22 H5           6.0050   -36.1500    16.8770 h1         1 E3J       0.053700
     23 H6           6.3360   -37.8440    17.1820 h1         1 E3J       0.053700
     24 H7           8.7030   -37.5380    17.2250 h1         1 E3J       0.043700
     25 H8           7.9800   -36.3490    18.3060 h1         1 E3J       0.043700
     26 H9           8.2100   -33.9420    17.6400 h1         1 E3J       0.044450
     27 H10          7.1390   -34.3250    16.2880 h1         1 E3J       0.044450
     28 H11          8.7900   -39.1150    11.1960 ha         1 E3J       0.118000
     29 H12          4.9980   -37.6020     9.9220 ha         1 E3J       0.130000
     30 H13          8.7630   -33.6060    14.6500 h1         1 E3J       0.052200
     31 H14          8.5180   -32.3130    15.8360 h1         1 E3J       0.052200
     32 H15         10.6490   -36.5340    16.6330 h1         1 E3J       0.044450
     33 H16         10.3650   -35.2780    17.8440 h1         1 E3J       0.044450
     34 H17          7.6530   -36.7870    14.8180 hn         1 E3J       0.341500
     35 H19          3.4650   -37.3110    13.4990 hs         1 E3J       0.256800
     36 H3           8.1450   -38.7360    13.5340 ha         1 E3J       0.117000
@<TRIPOS>BOND
     1     1    11 1   
     2     1    17 1   
     3     1    19 1   
     4     1    20 1   
     5     2     8 ar  
     6     2    12 ar  
     7     2    36 1   
     8     3     8 ar  
     9     3     9 ar  
    10     3    21 1   
    11     4    12 1   
    12     4    14 1   
    13     4    16 2   
    14     5     6 1   
    15     5    14 1   
    16     5    22 1   
    17     5    23 1   
    18     6    15 1   
    19     6    24 1   
    20     6    25 1   
    21     7    10 1   
    22     7    15 1   
    23     7    26 1   
    24     7    27 1   
    25     8    28 1   
    26     9    13 ar  
    27     9    29 1   
    28    10    17 1   
    29    10    30 1   
    30    10    31 1   
    31    11    15 1   
    32    11    32 1   
    33    11    33 1   
    34    12    13 ar  
    35    13    18 1   
    36    14    34 1   
    37    18    35 1   
@<TRIPOS>SUBSTRUCTURE
     1 E3J         1 TEMP              0 ****  ****    0 ROOT
