@<TRIPOS>MOLECULE
E3K
   49    51     1     0     0
SMALL
abcg2


@<TRIPOS>ATOM
      1 C2           4.6840     3.1720    -0.6160 ca         1 E3K       0.205900
      2 C3           2.9710     1.8410    -0.2960 ca         1 E3K       0.168500
      3 C4           2.0650     2.8800    -0.4020 ca         1 E3K      -0.104600
      4 C5           0.9020     1.1460    -0.0710 cc         1 E3K       0.401700
      5 C6          -1.7860     1.1380     0.3090 c3         1 E3K      -0.043400
      6 C7          -3.0000     0.2520     0.5110 c          1 E3K       0.625100
      7 N8          -1.1050    -2.7690    -1.4230 n1         1 E3K       0.247000
      8 N9          -2.0590    -2.2240    -1.8210 n2         1 E3K      -0.183400
      9 C10          2.7390    -0.6000     0.1360 c5         1 E3K       0.315300
     10 C11          2.0140    -2.7900    -0.0470 c5         1 E3K       0.125300
     11 C12          0.5790    -3.2520     0.1500 c3         1 E3K       0.113800
     12 C14          2.6020    -1.1440     1.5570 c5         1 E3K       0.139300
     13 C1           2.6050     4.1570    -0.6340 ca         1 E3K       0.460900
     14 C13          2.7490    -2.6480     1.3000 c5         1 E3K       0.111300
     15 C8          -5.4310     0.2180     0.7370 c3         1 E3K       0.104000
     16 C9          -5.9720    -0.3150    -0.5840 c3         1 E3K       0.047600
     17 N1           1.8490     5.2490    -0.7550 nv         1 E3K      -1.055900
     18 N2           3.9350     4.2630    -0.7350 nb         1 E3K      -0.285000
     19 N3           4.2910     1.9280    -0.3960 nb         1 E3K      -0.218000
     20 N4           0.7770     2.4250    -0.2640 nd         1 E3K      -0.542100
     21 N5          -4.1680     0.8980     0.5640 ns         1 E3K      -0.478900
     22 N6           2.2120     0.7200    -0.0750 na         1 E3K      -0.278300
     23 N7          -0.0840    -3.2400    -1.1660 n2         1 E3K      -0.060200
     24 O1          -2.8850    -0.9610     0.6210 o          1 E3K      -0.671100
     25 O2           2.0380    -1.5120    -0.6700 os         1 E3K      -0.453000
     26 O3           4.1110    -2.9370     1.1820 oh         1 E3K      -0.662000
     27 O4           3.5610    -0.5620     2.3740 oh         1 E3K      -0.653000
     28 S1          -0.3910     0.0060     0.1420 ss         1 E3K      -0.259200
     29 S2          -7.5540    -1.1600    -0.2550 sh         1 E3K      -0.415800
     30 H1           5.7540     3.3260    -0.7110 h5         1 E3K       0.062100
     31 H2          -1.8870     1.7540    -0.5850 h1         1 E3K       0.111700
     32 H3          -1.6430     1.8030     1.1620 h1         1 E3K       0.111700
     33 H4          -2.9250    -2.7740    -1.7940 hn         1 E3K       0.517400
     34 H5           3.7990    -0.5460    -0.1390 h2         1 E3K       0.145700
     35 H6           2.5230    -3.5140    -0.6900 h1         1 E3K       0.101700
     36 H7           0.5710    -4.2980     0.4550 h1         1 E3K       0.118700
     37 H8           0.0060    -2.6590     0.8610 h1         1 E3K       0.118700
     38 H9           1.5830    -0.9550     1.9210 h1         1 E3K       0.054700
     39 H10          2.2700    -3.2490     2.0840 h1         1 E3K       0.057700
     40 H11         -6.1330     0.9290     1.1720 h1         1 E3K       0.082200
     41 H12         -5.3070    -0.5950     1.4540 h1         1 E3K       0.082200
     42 H13         -6.1330     0.5040    -1.2830 h1         1 E3K       0.057200
     43 H14         -5.2680    -1.0190    -1.0260 h1         1 E3K       0.057200
     44 H15          0.8480     5.1990    -0.6930 hn         1 E3K       0.512500
     45 H16          2.2740     6.1450    -0.9200 hn         1 E3K       0.512500
     46 H17         -4.1840     1.8960     0.4250 hn         1 E3K       0.334500
     47 H18          4.2160    -3.8860     1.0630 ho         1 E3K       0.517000
     48 H19          3.3420    -0.7480     3.2920 ho         1 E3K       0.524000
     49 H20         -7.8660    -1.4370    -1.5250 hs         1 E3K       0.220800
@<TRIPOS>BOND
     1     1    18 ar  
     2     1    19 ar  
     3     1    30 1   
     4     2     3 ar  
     5     2    19 ar  
     6     2    22 1   
     7     3    13 ar  
     8     3    20 1   
     9     4    20 2   
    10     4    22 1   
    11     4    28 1   
    12     5     6 1   
    13     5    28 1   
    14     5    31 1   
    15     5    32 1   
    16     6    21 1   
    17     6    24 2   
    18     7     8 2   
    19     7    23 2   
    20     8    33 1   
    21     9    12 1   
    22     9    22 1   
    23     9    25 1   
    24     9    34 1   
    25    10    11 1   
    26    10    14 1   
    27    10    25 1   
    28    10    35 1   
    29    11    23 1   
    30    11    36 1   
    31    11    37 1   
    32    12    14 1   
    33    12    27 1   
    34    12    38 1   
    35    13    17 1   
    36    13    18 ar  
    37    14    26 1   
    38    14    39 1   
    39    15    16 1   
    40    15    21 1   
    41    15    40 1   
    42    15    41 1   
    43    16    29 1   
    44    16    42 1   
    45    16    43 1   
    46    17    44 1   
    47    17    45 1   
    48    21    46 1   
    49    26    47 1   
    50    27    48 1   
    51    29    49 1   
@<TRIPOS>SUBSTRUCTURE
     1 E3K         1 TEMP              0 ****  ****    0 ROOT
