@<TRIPOS>MOLECULE
E3K
   49    51     1     0     0
SMALL
No Charge or Current Charge


@<TRIPOS>ATOM
      1 C2           4.5970     3.2850    -0.9190 ca         1 E3K       0.205900
      2 C3           2.9400     1.8320    -0.3040 ca         1 E3K       0.168500
      3 C4           2.0250     2.8620    -0.3460 ca         1 E3K      -0.104600
      4 C5           0.9200     1.1450     0.2310 cc         1 E3K       0.401700
      5 C6          -1.9090     1.0520     0.1880 c3         1 E3K      -0.043400
      6 C7          -3.1800     0.2020     0.0920 c          1 E3K       0.625100
      7 N8          -1.1870    -3.5000    -0.9160 n1         1 E3K       0.247000
      8 N9          -1.7240    -2.8140    -1.7930 n2         1 E3K      -0.183400
      9 C10          2.8000    -0.6080     0.3390 c5         1 E3K       0.315300
     10 C11          2.2330    -2.8920     0.1000 c5         1 E3K       0.125300
     11 C12          0.7680    -3.3750     0.2980 c3         1 E3K       0.113800
     12 C14          2.6280    -1.2110     1.7700 c5         1 E3K       0.139300
     13 C1           2.4870     4.1440    -0.7020 ca         1 E3K       0.460900
     14 C13          3.0150    -2.6840     1.4480 c5         1 E3K       0.111300
     15 C8          -5.6270     0.0980     0.6790 c3         1 E3K       0.104000
     16 C9          -6.3200     0.1460    -0.6980 c3         1 E3K       0.047600
     17 N1           1.6620     5.2230    -0.7780 nv         1 E3K      -1.055900
     18 N2           3.7790     4.3630    -0.9930 nb         1 E3K      -0.285000
     19 N3           4.2440     2.0200    -0.5870 nb         1 E3K      -0.218000
     20 N4           0.7270     2.4430    -0.0280 nd         1 E3K      -0.542100
     21 N5          -4.3060     0.7420     0.6700 ns         1 E3K      -0.478900
     22 N6           2.2360     0.7160     0.0570 na         1 E3K      -0.278300
     23 N7           0.0470    -3.3820    -0.9800 n2         1 E3K      -0.060200
     24 O1          -3.2000    -0.8910    -0.4640 o          1 E3K      -0.671100
     25 O2           2.2440    -1.5940    -0.5620 os         1 E3K      -0.453000
     26 O3           4.4420    -2.8040     1.2910 oh         1 E3K      -0.662000
     27 O4           3.5090    -0.6560     2.7570 oh         1 E3K      -0.653000
     28 S1          -0.4000     0.0250     0.5470 ss         1 E3K      -0.259200
     29 S2          -8.0120    -0.6110    -0.7000 sh         1 E3K      -0.415800
     30 H1           5.6470     3.4530    -1.1520 h5         1 E3K       0.062100
     31 H2          -1.7920     1.5680    -0.7720 h1         1 E3K       0.111700
     32 H3          -2.0300     1.8050     0.9750 h1         1 E3K       0.111700
     33 H4          -2.3510    -2.1220    -1.3420 hn         1 E3K       0.517400
     34 H5           3.8760    -0.5220     0.1330 h2         1 E3K       0.145700
     35 H6           2.7450    -3.6200    -0.5450 h1         1 E3K       0.101700
     36 H7           0.7890    -4.3860     0.7260 h1         1 E3K       0.118700
     37 H8           0.2640    -2.7280     1.0270 h1         1 E3K       0.118700
     38 H9           1.5870    -1.1390     2.1110 h1         1 E3K       0.054700
     39 H10          2.6590    -3.3690     2.2320 h1         1 E3K       0.057700
     40 H11         -6.2620     0.6040     1.4190 h1         1 E3K       0.082200
     41 H12         -5.5140    -0.9480     0.9930 h1         1 E3K       0.082200
     42 H13         -6.4110     1.1910    -1.0210 h1         1 E3K       0.057200
     43 H14         -5.7050    -0.3860    -1.4360 h1         1 E3K       0.057200
     44 H15          0.6640     5.0290    -0.7770 hn         1 E3K       0.512500
     45 H16          1.9680     6.0250    -1.3210 hn         1 E3K       0.512500
     46 H17         -4.2090     1.6500     1.1110 hn         1 E3K       0.334500
     47 H18          4.6570    -3.7620     1.1850 ho         1 E3K       0.517000
     48 H19          4.3440    -1.1780     2.6640 ho         1 E3K       0.524000
     49 H20         -8.2760    -0.3870    -2.0120 hs         1 E3K       0.220800
@<TRIPOS>BOND
     1     1    18 ar  
     2     1    19 ar  
     3     1    30 1   
     4     2     3 ar  
     5     2    19 ar  
     6     2    22 1   
     7     3    13 ar  
     8     3    20 1   
     9     4    20 2   
    10     4    22 1   
    11     4    28 1   
    12     5     6 1   
    13     5    28 1   
    14     5    31 1   
    15     5    32 1   
    16     6    21 1   
    17     6    24 2   
    18     7     8 2   
    19     7    23 2   
    20     8    33 1   
    21     9    12 1   
    22     9    22 1   
    23     9    25 1   
    24     9    34 1   
    25    10    11 1   
    26    10    14 1   
    27    10    25 1   
    28    10    35 1   
    29    11    23 1   
    30    11    36 1   
    31    11    37 1   
    32    12    14 1   
    33    12    27 1   
    34    12    38 1   
    35    13    17 1   
    36    13    18 ar  
    37    14    26 1   
    38    14    39 1   
    39    15    16 1   
    40    15    21 1   
    41    15    40 1   
    42    15    41 1   
    43    16    29 1   
    44    16    42 1   
    45    16    43 1   
    46    17    44 1   
    47    17    45 1   
    48    21    46 1   
    49    26    47 1   
    50    27    48 1   
    51    29    49 1   
@<TRIPOS>SUBSTRUCTURE
     1 E3K         1 TEMP              0 ****  ****    0 ROOT
