@<TRIPOS>MOLECULE
E3M
   40    40     1     0     0
SMALL
abcg2


@<TRIPOS>ATOM
      1 C1           6.0540    23.8930     9.8060 c6         1 E3M      -0.085700
      2 C8           9.4440    19.6980    11.1910 c3         1 E3M       0.120600
      3 C2           6.5290    25.3050     9.5310 c6         1 E3M      -0.069400
      4 C3           7.4950    25.7500    10.6210 c6         1 E3M       0.148500
      5 C4           8.6140    24.7030    10.7730 c6         1 E3M       0.034700
      6 C10         11.4300    25.7800    13.0770 c3         1 E3M      -0.183100
      7 C5           8.0090    23.3040    10.9720 c6         1 E3M       0.167300
      8 C6           9.0620    22.2040    11.0390 c3         1 E3M       0.196300
      9 C7           8.4440    20.8320    11.3540 c3         1 E3M       0.140300
     10 N3           7.9610    27.0950    10.3480 n8         1 E3M      -0.994200
     11 N4           9.4710    25.0470    11.8820 ns         1 E3M      -0.504900
     12 O9          11.3970    25.3430    10.7280 o          1 E3M      -0.611100
     13 O6           9.7610    22.1810     9.8160 oh         1 E3M      -0.689000
     14 O7           7.9490    20.9200    12.6750 oh         1 E3M      -0.661000
     15 O5           7.1320    23.0030     9.9070 os         1 E3M      -0.386000
     16 S1           4.9750    23.2580     8.4840 s6         1 E3M       1.327600
     17 OS1          3.8930    24.2570     8.4050 o          1 E3M      -0.682867
     18 OS2          5.8160    23.2000     7.2740 o          1 E3M      -0.682867
     19 H1           5.4490    23.8790    10.7260 h2         1 E3M       0.046700
     20 H19          9.6460    19.5590    10.1220 h1         1 E3M       0.024200
     21 H3           7.0320    25.3380     8.5590 hc         1 E3M       0.071700
     22 H2           5.6810    25.9880     9.4920 hc         1 E3M       0.071700
     23 H4           6.9430    25.7800    11.5700 h1         1 E3M       0.043700
     24 H8           9.2190    24.7070     9.8650 h1         1 E3M       0.107700
     25 H12         12.3930    25.2810    13.1810 hc         1 E3M       0.052700
     26 H10         11.6230    26.8540    13.0500 hc         1 E3M       0.052700
     27 H11         10.8290    25.5670    13.9590 hc         1 E3M       0.052700
     28 H13          7.4560    23.3060    11.9250 h1         1 E3M       0.036700
     29 H14          9.7290    22.4580    11.8710 h1         1 E3M       0.043700
     30 H16          7.6340    20.6290    10.6410 h1         1 E3M       0.088700
     31 H5           8.5790    27.4040    11.0880 hn         1 E3M       0.388500
     32 H6           8.5150    27.0960     9.4980 hn         1 E3M       0.388500
     33 H9           9.0370    25.1120    12.7900 hn         1 E3M       0.303500
     34 H15         10.6490    21.8540     9.9850 ho         1 E3M       0.494000
     35 H17          7.3710    20.1680    12.8350 ho         1 E3M       0.439000
     36 H20         11.2470    19.2690    11.7650 ho         1 E3M       0.491000
     37 C9          10.7770    25.3650    11.7810 c          1 E3M       0.598100
     38 O8          10.6180    19.9800    11.9170 oh         1 E3M      -0.721000
     39 H18          8.9680    18.7680    11.5360 h1         1 E3M       0.024200
     40 OS3          4.5240    21.9350     8.9500 o          1 E3M      -0.682867
@<TRIPOS>BOND
     1     1     3 1   
     2     1    15 1   
     3     1    16 1   
     4     1    19 1   
     5     2     9 1   
     6     2    20 1   
     7     2    38 1   
     8     2    39 1   
     9     3     4 1   
    10     3    21 1   
    11     3    22 1   
    12     4     5 1   
    13     4    10 1   
    14     4    23 1   
    15     5     7 1   
    16     5    11 1   
    17     5    24 1   
    18     6    25 1   
    19     6    26 1   
    20     6    27 1   
    21     6    37 1   
    22     7     8 1   
    23     7    15 1   
    24     7    28 1   
    25     8     9 1   
    26     8    13 1   
    27     8    29 1   
    28     9    14 1   
    29     9    30 1   
    30    10    31 1   
    31    10    32 1   
    32    11    33 1   
    33    11    37 1   
    34    12    37 2   
    35    13    34 1   
    36    14    35 1   
    37    16    17 1   
    38    16    18 1   
    39    16    40 1   
    40    36    38 1   
@<TRIPOS>SUBSTRUCTURE
     1 E3M         1 TEMP              0 ****  ****    0 ROOT
