@<TRIPOS>MOLECULE
E3M
   40    40     1     0     0
SMALL
No Charge or Current Charge


@<TRIPOS>ATOM
      1 C1           5.9460    23.9230     9.6960 c6         1 E3M      -0.085700
      2 C8           9.5560    19.6740    11.3680 c3         1 E3M       0.120600
      3 C2           6.4000    25.4010     9.5260 c6         1 E3M      -0.069400
      4 C3           7.3900    25.7970    10.6500 c6         1 E3M       0.148500
      5 C4           8.5770    24.7880    10.7230 c6         1 E3M       0.034700
      6 C10         11.6710    25.4140    12.9650 c3         1 E3M      -0.183100
      7 C5           7.9890    23.3490    10.9030 c6         1 E3M       0.167300
      8 C6           9.0820    22.2190    11.0080 c3         1 E3M       0.196300
      9 C7           8.4820    20.7840    11.1820 c3         1 E3M       0.140300
     10 N3           7.8690    27.1840    10.4490 n8         1 E3M      -0.994200
     11 N4           9.5410    25.1610    11.7870 ns         1 E3M      -0.504900
     12 O9          11.4280    24.3530    10.8090 o          1 E3M      -0.611100
     13 O6           9.9880    22.2450     9.8820 oh         1 E3M      -0.689000
     14 O7           7.6220    20.7230    12.3360 oh         1 E3M      -0.661000
     15 O5           7.1200    23.0590     9.7790 os         1 E3M      -0.386000
     16 S1           4.7530    23.3740     8.3590 s6         1 E3M       1.327600
     17 OS1          3.6240    24.3120     8.4800 o          1 E3M      -0.682867
     18 OS2          5.5100    23.5080     7.1030 o          1 E3M      -0.682867
     19 H1           5.3480    23.8180    10.6120 h2         1 E3M       0.046700
     20 H19         10.3200    19.7560    10.5850 h1         1 E3M       0.024200
     21 H3           6.8720    25.5320     8.5430 hc         1 E3M       0.071700
     22 H2           5.5270    26.0680     9.5490 hc         1 E3M       0.071700
     23 H4           6.8580    25.7740    11.6140 h1         1 E3M       0.043700
     24 H8           9.1020    24.8170     9.7570 h1         1 E3M       0.107700
     25 H12         12.7440    25.2000    12.8960 hc         1 E3M       0.052700
     26 H10         11.4790    26.4840    13.1050 hc         1 E3M       0.052700
     27 H11         11.2300    24.9790    13.8690 hc         1 E3M       0.052700
     28 H13          7.3880    23.3240    11.8240 h1         1 E3M       0.036700
     29 H14          9.6540    22.4250    11.9230 h1         1 E3M       0.043700
     30 H16          7.9100    20.5530    10.2720 h1         1 E3M       0.088700
     31 H5           8.6560    27.3470    11.0860 hn         1 E3M       0.388500
     32 H6           8.2990    27.2540     9.5200 hn         1 E3M       0.388500
     33 H9           9.1880    25.6230    12.6180 hn         1 E3M       0.303500
     34 H15         10.6070    23.0030    10.0660 ho         1 E3M       0.494000
     35 H17          8.2150    20.3760    13.0430 ho         1 E3M       0.439000
     36 H20         10.8740    19.0950    12.7160 ho         1 E3M       0.491000
     37 C9          10.8960    24.9260    11.7500 c          1 E3M       0.598100
     38 O8          10.1550    19.7700    12.6770 oh         1 E3M      -0.721000
     39 H18          9.0740    18.6940    11.2480 h1         1 E3M       0.024200
     40 OS3          4.4140    21.9850     8.7130 o          1 E3M      -0.682867
@<TRIPOS>BOND
     1     1     3 1   
     2     1    15 1   
     3     1    16 1   
     4     1    19 1   
     5     2     9 1   
     6     2    20 1   
     7     2    38 1   
     8     2    39 1   
     9     3     4 1   
    10     3    21 1   
    11     3    22 1   
    12     4     5 1   
    13     4    10 1   
    14     4    23 1   
    15     5     7 1   
    16     5    11 1   
    17     5    24 1   
    18     6    25 1   
    19     6    26 1   
    20     6    27 1   
    21     6    37 1   
    22     7     8 1   
    23     7    15 1   
    24     7    28 1   
    25     8     9 1   
    26     8    13 1   
    27     8    29 1   
    28     9    14 1   
    29     9    30 1   
    30    10    31 1   
    31    10    32 1   
    32    11    33 1   
    33    11    37 1   
    34    12    37 2   
    35    13    34 1   
    36    14    35 1   
    37    16    17 1   
    38    16    18 1   
    39    16    40 1   
    40    36    38 1   
@<TRIPOS>SUBSTRUCTURE
     1 E3M         1 TEMP              0 ****  ****    0 ROOT
