@<TRIPOS>MOLECULE
E3N
   63    65     1     0     0
SMALL
bcc


@<TRIPOS>ATOM
      1 C10          5.2760     0.2520    -1.3710 c6         1 E3N       0.220300
      2 C13          8.0880     1.0300     0.1820 c3         1 E3N      -0.185900
      3 C15          9.2580     1.9970     0.3020 c3         1 E3N      -0.074100
      4 C20          1.5600    -0.8230    -1.1610 c6         1 E3N      -0.110400
      5 C22         -4.0450    -2.7770    -0.0200 c3         1 E3N       0.158300
      6 C24         -6.1140    -1.3990    -0.4290 ca         1 E3N      -0.107500
      7 C26         -6.4420     0.7150     0.6240 ca         1 E3N       0.095100
      8 C28         -7.0730     2.9050     0.1040 c3         1 E3N       0.854700
      9 C02         -1.6350    -2.2660    -0.0190 c          1 E3N       0.783100
     10 C04          0.7600    -1.8000    -0.3070 c6         1 E3N       0.121700
     11 C05          1.4730    -3.1490    -0.2970 c6         1 E3N      -0.140400
     12 C06          2.9200    -2.9780     0.1320 c6         1 E3N       0.139400
     13 C08          3.0280    -0.7440    -0.7320 c6         1 E3N       0.166800
     14 C09          3.8320     0.0150    -1.7850 c6         1 E3N      -0.085900
     15 C14          8.1000    -0.0390     1.2620 c3         1 E3N      -0.074100
     16 C18          4.6250     0.2090     1.0000 c6         1 E3N       0.220300
     17 C19          3.1730    -0.0070     0.6080 c6         1 E3N      -0.085900
     18 C23         -4.8930    -1.5500     0.2160 ca         1 E3N      -0.112300
     19 C25         -6.8980    -0.2690    -0.2320 ca         1 E3N      -0.121000
     20 C32         -5.2330     0.5920     1.2890 ca         1 E3N      -0.121000
     21 C33         -4.4650    -0.5430     1.0810 ca         1 E3N      -0.107500
     22 F29         -5.8380     3.4060     0.1820 f          1 E3N      -0.230967
     23 F30         -7.9260     3.8310     0.5130 f          1 E3N      -0.230967
     24 F31         -7.3060     2.6620    -1.1880 f          1 E3N      -0.230967
     25 N03         -0.5950    -1.8840    -0.8090 ns         1 E3N      -0.577900
     26 N11          5.3080     0.9240    -0.0740 n3         1 E3N      -0.761500
     27 N21         -2.7980    -2.4930    -0.6890 ns         1 E3N      -0.588900
     28 O01         -1.5350    -2.3880     1.1980 o          1 E3N      -0.644100
     29 O07          3.6040    -2.0410    -0.6740 os         1 E3N      -0.415600
     30 O16          6.3520     2.4810     1.5840 o          1 E3N      -0.602800
     31 O17          6.5820     2.9230    -0.8700 o          1 E3N      -0.602800
     32 S12          6.5410     1.9670     0.2320 s6         1 E3N       1.220900
     33 H1           5.8270    -0.6940    -1.3260 h1         1 E3N       0.056700
     34 H2           5.7630     0.8740    -2.1190 h1         1 E3N       0.056700
     35 H3           8.0970     0.5620    -0.8060 h1         1 E3N       0.084700
     36 H4           9.2420     2.5250     1.2560 hc         1 E3N       0.050200
     37 H5          10.1870     1.4300     0.2540 hc         1 E3N       0.050200
     38 H6           9.2710     2.7280    -0.5040 hc         1 E3N       0.050200
     39 H7           1.5160    -1.1460    -2.2080 hc         1 E3N       0.056200
     40 H8           1.1150     0.1740    -1.1170 hc         1 E3N       0.056200
     41 H9          -3.8250    -3.2680     0.9270 h1         1 E3N       0.068700
     42 H10         -4.6030    -3.4920    -0.6250 h1         1 E3N       0.068700
     43 H11         -6.4680    -2.1730    -1.0990 ha         1 E3N       0.147500
     44 H12          0.6980    -1.4210     0.7150 h1         1 E3N       0.085700
     45 H13          0.9740    -3.8460     0.3800 hc         1 E3N       0.058200
     46 H14          1.4350    -3.5830    -1.3010 hc         1 E3N       0.058200
     47 H15          2.9660    -2.7020     1.1940 h1         1 E3N       0.048200
     48 H16          3.4630    -3.9200     0.0310 h1         1 E3N       0.048200
     49 H17          3.3500     0.9780    -1.9720 hc         1 E3N       0.060450
     50 H18          3.8230    -0.5400    -2.7270 hc         1 E3N       0.060450
     51 H19          7.2770    -0.7450     1.1600 hc         1 E3N       0.050200
     52 H20          9.0250    -0.6090     1.1820 hc         1 E3N       0.050200
     53 H21          8.0620     0.3990     2.2580 hc         1 E3N       0.050200
     54 H22          4.6670     0.7960     1.9130 h1         1 E3N       0.056700
     55 H23          5.1100    -0.7520     1.2030 h1         1 E3N       0.056700
     56 H24          2.6760     0.9630     0.5240 hc         1 E3N       0.060450
     57 H25          2.6750    -0.5390     1.4210 hc         1 E3N       0.060450
     58 H26         -7.8530    -0.1700    -0.7310 ha         1 E3N       0.154000
     59 H27         -4.8990     1.3590     1.9740 ha         1 E3N       0.154000
     60 H28         -3.5240    -0.6440     1.6060 ha         1 E3N       0.147500
     61 H29         -0.6940    -1.9890    -1.8070 hn         1 E3N       0.299500
     62 H30         -2.8540    -2.2500    -1.6650 hn         1 E3N       0.306500
     63 O27         -7.2450     1.8250     0.8740 os         1 E3N      -0.379900
@<TRIPOS>BOND
     1     1    14 1   
     2     1    26 1   
     3     1    33 1   
     4     1    34 1   
     5     2     3 1   
     6     2    15 1   
     7     2    32 1   
     8     2    35 1   
     9     3    36 1   
    10     3    37 1   
    11     3    38 1   
    12     4    10 1   
    13     4    13 1   
    14     4    39 1   
    15     4    40 1   
    16     5    18 1   
    17     5    27 1   
    18     5    41 1   
    19     5    42 1   
    20     6    18 ar  
    21     6    19 ar  
    22     6    43 1   
    23     7    19 ar  
    24     7    20 ar  
    25     7    63 1   
    26     8    22 1   
    27     8    23 1   
    28     8    24 1   
    29     8    63 1   
    30     9    25 1   
    31     9    27 1   
    32     9    28 2   
    33    10    11 1   
    34    10    25 1   
    35    10    44 1   
    36    11    12 1   
    37    11    45 1   
    38    11    46 1   
    39    12    29 1   
    40    12    47 1   
    41    12    48 1   
    42    13    14 1   
    43    13    17 1   
    44    13    29 1   
    45    14    49 1   
    46    14    50 1   
    47    15    51 1   
    48    15    52 1   
    49    15    53 1   
    50    16    17 1   
    51    16    26 1   
    52    16    54 1   
    53    16    55 1   
    54    17    56 1   
    55    17    57 1   
    56    18    21 ar  
    57    19    58 1   
    58    20    21 ar  
    59    20    59 1   
    60    21    60 1   
    61    25    61 1   
    62    26    32 1   
    63    27    62 1   
    64    30    32 2   
    65    31    32 2   
@<TRIPOS>SUBSTRUCTURE
     1 E3N         1 TEMP              0 ****  ****    0 ROOT
