@<TRIPOS>MOLECULE
E3N
   63    65     1     0     0
SMALL
No Charge or Current Charge


@<TRIPOS>ATOM
      1 C10          5.3520     0.5570    -1.3130 c6         1 E3N       0.220300
      2 C13          8.2210     0.7120    -0.0500 c3         1 E3N      -0.296700
      3 C15          9.6560     1.2830     0.0850 c3         1 E3N      -0.074100
      4 C20          1.6360    -0.6760    -1.0530 c6         1 E3N      -0.110400
      5 C22         -4.0080    -2.7590    -0.0410 c3         1 E3N       0.158300
      6 C24         -5.7990    -1.1390    -0.8430 ca         1 E3N      -0.089500
      7 C26         -6.5110     0.7560     0.5260 ca         1 E3N       0.095100
      8 C28         -8.2500     2.4200    -0.1370 c3         1 E3N       0.514000
      9 C02         -1.5720    -2.2180     0.1570 c          1 E3N       0.649100
     10 C04          0.8580    -1.6060    -0.0890 c6         1 E3N       0.121700
     11 C05          1.6300    -2.9380     0.0600 c6         1 E3N      -0.140400
     12 C06          3.0860    -2.6740     0.4980 c6         1 E3N       0.162600
     13 C08          3.1170    -0.4720    -0.6060 c6         1 E3N       0.190000
     14 C09          3.8890     0.2770    -1.7230 c6         1 E3N      -0.085900
     15 C14          8.0500    -0.5780     0.7980 c3         1 E3N      -0.074100
     16 C18          4.6970     0.6720     1.0670 c6         1 E3N       0.220300
     17 C19          3.2250     0.3910     0.6880 c6         1 E3N      -0.085900
     18 C23         -4.8870    -1.5320     0.1560 ca         1 E3N      -0.112300
     19 C25         -6.6080    -0.0030    -0.6630 ca         1 E3N      -0.103000
     20 C32         -5.5990     0.3610     1.5190 ca         1 E3N      -0.103000
     21 C33         -4.7900    -0.7740     1.3380 ca         1 E3N      -0.089500
     22 F29         -7.6980     2.7850    -1.3170 f          1 E3N      -0.109667
     23 F30         -8.8320     3.5240     0.3810 f          1 E3N      -0.109667
     24 F31         -9.2430     1.5380    -0.3960 f          1 E3N      -0.109667
     25 N03         -0.4950    -1.8500    -0.6010 ns         1 E3N      -0.510900
     26 N11          5.4230     1.3320    -0.0500 n3         1 E3N      -0.761500
     27 N21         -2.7020    -2.3940    -0.5900 ns         1 E3N      -0.521900
     28 O01         -1.5260    -2.3690     1.3660 o          1 E3N      -0.644100
     29 O07          3.7300    -1.7760    -0.4350 os         1 E3N      -0.462000
     30 O16          6.9880     2.2360     1.7760 o          1 E3N      -0.532000
     31 O17          7.1450     3.1430    -0.5780 o          1 E3N      -0.532000
     32 S12          6.9720     2.0010     0.3270 s6         1 E3N       1.190100
     33 H1           5.8820    -0.4010    -1.2180 h1         1 E3N       0.056700
     34 H2           5.8360     1.1120    -2.1300 h1         1 E3N       0.056700
     35 H3           8.0640     0.4630    -1.1050 h1         1 E3N       0.084700
     36 H4           9.8640     1.5860     1.1190 hc         1 E3N       0.050200
     37 H5          10.4010     0.5330    -0.2060 hc         1 E3N       0.050200
     38 H6           9.7950     2.1580    -0.5630 hc         1 E3N       0.050200
     39 H7           1.6180    -1.1070    -2.0630 hc         1 E3N       0.056200
     40 H8           1.1270     0.2940    -1.1240 hc         1 E3N       0.056200
     41 H9          -3.8800    -3.2830     0.9150 h1         1 E3N       0.068700
     42 H10         -4.4970    -3.4580    -0.7330 h1         1 E3N       0.068700
     43 H11         -5.8800    -1.7140    -1.7630 ha         1 E3N       0.129500
     44 H12          0.7740    -1.1220     0.8960 h1         1 E3N       0.085700
     45 H13          1.1340    -3.5840     0.7970 hc         1 E3N       0.058200
     46 H14          1.6290    -3.4860    -0.8920 hc         1 E3N       0.058200
     47 H15          3.1170    -2.2510     1.5120 h1         1 E3N       0.048200
     48 H16          3.6440    -3.6210     0.5180 h1         1 E3N       0.048200
     49 H17          3.3910     1.2290    -1.9530 hc         1 E3N       0.060450
     50 H18          3.8780    -0.3110    -2.6500 hc         1 E3N       0.060450
     51 H19          7.0950    -1.0730     0.5940 hc         1 E3N       0.050200
     52 H20          8.8430    -1.2990     0.5620 hc         1 E3N       0.050200
     53 H21          8.1040    -0.3580     1.8710 hc         1 E3N       0.050200
     54 H22          4.6880     1.3140     1.9600 h1         1 E3N       0.056700
     55 H23          5.1820    -0.2700     1.3550 h1         1 E3N       0.056700
     56 H24          2.7150     1.3500     0.5310 hc         1 E3N       0.060450
     57 H25          2.7150    -0.0790     1.5360 hc         1 E3N       0.060450
     58 H26         -7.2980     0.2660    -1.4560 ha         1 E3N       0.136000
     59 H27         -5.5180     0.9410     2.4350 ha         1 E3N       0.136000
     60 H28         -4.0860    -1.0640     2.1160 ha         1 E3N       0.129500
     61 H29         -0.6500    -1.7540    -1.5950 hn         1 E3N       0.299500
     62 H30         -2.6300    -2.2350    -1.5850 hn         1 E3N       0.306500
     63 O27         -7.2720     1.8850     0.7780 os         1 E3N      -0.403100
@<TRIPOS>BOND
     1     1    14 1   
     2     1    26 1   
     3     1    33 1   
     4     1    34 1   
     5     2     3 1   
     6     2    15 1   
     7     2    32 1   
     8     2    35 1   
     9     3    36 1   
    10     3    37 1   
    11     3    38 1   
    12     4    10 1   
    13     4    13 1   
    14     4    39 1   
    15     4    40 1   
    16     5    18 1   
    17     5    27 1   
    18     5    41 1   
    19     5    42 1   
    20     6    18 ar  
    21     6    19 ar  
    22     6    43 1   
    23     7    19 ar  
    24     7    20 ar  
    25     7    63 1   
    26     8    22 1   
    27     8    23 1   
    28     8    24 1   
    29     8    63 1   
    30     9    25 1   
    31     9    27 1   
    32     9    28 2   
    33    10    11 1   
    34    10    25 1   
    35    10    44 1   
    36    11    12 1   
    37    11    45 1   
    38    11    46 1   
    39    12    29 1   
    40    12    47 1   
    41    12    48 1   
    42    13    14 1   
    43    13    17 1   
    44    13    29 1   
    45    14    49 1   
    46    14    50 1   
    47    15    51 1   
    48    15    52 1   
    49    15    53 1   
    50    16    17 1   
    51    16    26 1   
    52    16    54 1   
    53    16    55 1   
    54    17    56 1   
    55    17    57 1   
    56    18    21 ar  
    57    19    58 1   
    58    20    21 ar  
    59    20    59 1   
    60    21    60 1   
    61    25    61 1   
    62    26    32 1   
    63    27    62 1   
    64    30    32 2   
    65    31    32 2   
@<TRIPOS>SUBSTRUCTURE
     1 E3N         1 TEMP              0 ****  ****    0 ROOT
