@<TRIPOS>MOLECULE
E3O
   45    48     1     0     0
SMALL
bcc


@<TRIPOS>ATOM
      1 C2          -3.3220     0.8880    -3.2290 c6         1 E3O      -0.004400
      2 C3          -4.4220     0.4530    -2.2520 c6         1 E3O      -0.070400
      3 C4          -5.7770     0.2240    -2.9310 c6         1 E3O      -0.059400
      4 C5          -6.1780     1.4280    -3.7780 c5         1 E3O      -0.082000
      5 C6          -6.4870     2.6220    -2.8620 c3         1 E3O      -0.082100
      6 C7          -7.3760     1.2530    -4.7200 c5         1 E3O       0.114100
      7 O1          -7.3990     0.0210    -5.4170 oh         1 E3O      -0.599800
      8 C8          -7.2130     2.4410    -5.7100 c5         1 E3O       0.111100
      9 O2          -7.8090     2.1880    -6.9560 oh         1 E3O      -0.584800
     10 C9          -5.6870     2.7370    -5.7550 c5         1 E3O      -0.106400
     11 C10         -5.0540     1.7400    -4.7820 c5         1 E3O      -0.063700
     12 C12         -3.7480     2.0880    -4.0910 c6         1 E3O      -0.046700
     13 C14         -2.6220     2.4190    -5.0580 c6         1 E3O      -0.070400
     14 C15         -1.4030     2.9120    -4.2950 c6         1 E3O      -0.033100
     15 C16         -1.0790     2.0790    -3.0800 ca         1 E3O      -0.034300
     16 C17          0.1530     2.2800    -2.4640 ca         1 E3O      -0.167000
     17 C18          0.5170     1.5730    -1.3260 ca         1 E3O       0.140100
     18 O3           1.7260     1.8240    -0.7790 oh         1 E3O      -0.495100
     19 C19         -0.3710     0.6410    -0.8000 ca         1 E3O      -0.225000
     20 C20         -1.5960     0.4410    -1.4170 ca         1 E3O      -0.086000
     21 C21         -1.9840     1.1460    -2.5570 ca         1 E3O      -0.103300
     22 H2          -3.1810     0.0540    -3.9340 hc         1 E3O       0.050700
     23 H3C1        -4.5130     1.1980    -1.4560 hc         1 E3O       0.043700
     24 H3C2        -4.1370    -0.4780    -1.7600 hc         1 E3O       0.043700
     25 H12         -3.9050     2.9590    -3.4400 hc         1 E3O       0.058700
     26 H4C1        -5.7120    -0.6740    -3.5540 hc         1 E3O       0.045200
     27 H4C2        -6.5340     0.0170    -2.1690 hc         1 E3O       0.045200
     28 H6C1        -5.7260     2.7620    -2.0960 hc         1 E3O       0.038367
     29 H6C2        -6.5670     3.5660    -3.4000 hc         1 E3O       0.038367
     30 H6C3        -7.4350     2.4570    -2.3460 hc         1 E3O       0.038367
     31 H7          -8.3300     1.3060    -4.1880 h1         1 E3O       0.087700
     32 H10         -4.8420     0.8190    -5.3490 hc         1 E3O       0.035700
     33 H1          -6.5010    -0.2480    -5.6400 ho         1 E3O       0.406000
     34 H8          -7.7340     3.3080    -5.2980 h1         1 E3O       0.072700
     35 HA          -7.7090     1.2440    -7.1310 ho         1 E3O       0.413000
     36 H9C1        -5.4860     3.7680    -5.4520 hc         1 E3O       0.055200
     37 H9C2        -5.3020     2.6290    -6.7700 hc         1 E3O       0.055200
     38 H141        -2.9300     3.1790    -5.7790 hc         1 E3O       0.044700
     39 H142        -2.3700     1.5230    -5.6370 hc         1 E3O       0.044700
     40 H151        -1.5790     3.9420    -3.9680 hc         1 E3O       0.051700
     41 H152        -0.5310     2.9540    -4.9510 hc         1 E3O       0.051700
     42 H17          0.8440     3.0050    -2.8810 ha         1 E3O       0.144000
     43 H3           1.8630     1.2650    -0.0060 ho         1 E3O       0.425000
     44 H19         -0.1160     0.0730     0.0880 ha         1 E3O       0.131000
     45 H20         -2.2600    -0.2930    -0.9810 ha         1 E3O       0.128000
@<TRIPOS>BOND
     1     1     2 1   
     2     1    12 1   
     3     1    21 1   
     4     1    22 1   
     5     2     3 1   
     6     2    23 1   
     7     2    24 1   
     8     3     4 1   
     9     3    26 1   
    10     3    27 1   
    11     4     5 1   
    12     4     6 1   
    13     4    11 1   
    14     5    28 1   
    15     5    29 1   
    16     5    30 1   
    17     6     7 1   
    18     6     8 1   
    19     6    31 1   
    20     7    33 1   
    21     8     9 1   
    22     8    10 1   
    23     8    34 1   
    24     9    35 1   
    25    10    11 1   
    26    10    36 1   
    27    10    37 1   
    28    11    12 1   
    29    11    32 1   
    30    12    13 1   
    31    12    25 1   
    32    13    14 1   
    33    13    38 1   
    34    13    39 1   
    35    14    15 1   
    36    14    40 1   
    37    14    41 1   
    38    15    16 ar  
    39    15    21 ar  
    40    16    17 ar  
    41    16    42 1   
    42    17    18 1   
    43    17    19 ar  
    44    18    43 1   
    45    19    20 ar  
    46    19    44 1   
    47    20    21 ar  
    48    20    45 1   
@<TRIPOS>SUBSTRUCTURE
     1 E3O         1 TEMP              0 ****  ****    0 ROOT
