@<TRIPOS>MOLECULE
E3O
   45    48     1     0     0
SMALL
No Charge or Current Charge


@<TRIPOS>ATOM
      1 C2          -3.3000     0.9090    -3.2040 c6         1 E3O      -0.004400
      2 C3          -4.4450     0.5010    -2.2130 c6         1 E3O      -0.070400
      3 C4          -5.8050     0.2550    -2.9350 c6         1 E3O      -0.059400
      4 C5          -6.2330     1.4740    -3.8110 c5         1 E3O      -0.082000
      5 C6          -6.6340     2.6410    -2.8370 c3         1 E3O      -0.082100
      6 C7          -7.3800     1.2130    -4.8550 c5         1 E3O       0.137300
      7 O1          -7.2380    -0.0350    -5.5640 oh         1 E3O      -0.662000
      8 C8          -7.2180     2.4390    -5.8380 c5         1 E3O       0.134300
      9 O2          -7.5620     2.0410    -7.1620 oh         1 E3O      -0.647000
     10 C9          -5.7160     2.8860    -5.7180 c5         1 E3O      -0.106400
     11 C10         -5.0760     1.8000    -4.8060 c5         1 E3O      -0.063700
     12 C12         -3.7360     2.1280    -4.0860 c6         1 E3O      -0.046700
     13 C14         -2.6030     2.4790    -5.0750 c6         1 E3O      -0.070400
     14 C15         -1.3560     2.9550    -4.3030 c6         1 E3O      -0.033100
     15 C16         -1.0100     2.0980    -3.0790 ca         1 E3O      -0.034300
     16 C17          0.2480     2.2900    -2.4750 ca         1 E3O      -0.149000
     17 C18          0.6250     1.5400    -1.3550 ca         1 E3O       0.140100
     18 O3           1.8460     1.7370    -0.7860 oh         1 E3O      -0.534100
     19 C19         -0.2510     0.5850    -0.8290 ca         1 E3O      -0.207000
     20 C20         -1.5110     0.3850    -1.4180 ca         1 E3O      -0.068000
     21 C21         -1.9190     1.1480    -2.5380 ca         1 E3O      -0.103300
     22 H2          -3.1600     0.0540    -3.8810 hc         1 E3O       0.050700
     23 H3C1        -4.5510     1.2600    -1.4280 hc         1 E3O       0.043700
     24 H3C2        -4.1850    -0.4310    -1.6960 hc         1 E3O       0.043700
     25 H12         -3.8910     2.9990    -3.4360 hc         1 E3O       0.058700
     26 H4C1        -5.6950    -0.6430    -3.5580 hc         1 E3O       0.045200
     27 H4C2        -6.5860     0.0180    -2.1980 hc         1 E3O       0.045200
     28 H6C1        -5.8100     2.9600    -2.1920 hc         1 E3O       0.038367
     29 H6C2        -6.9830     3.5380    -3.3600 hc         1 E3O       0.038367
     30 H6C3        -7.4530     2.3290    -2.1780 hc         1 E3O       0.038367
     31 H7          -8.3640     1.2470    -4.3620 h1         1 E3O       0.087700
     32 H10         -4.8360     0.9230    -5.4210 hc         1 E3O       0.035700
     33 H1          -7.2770    -0.7490    -4.8910 ho         1 E3O       0.445000
     34 H8          -7.8700     3.2660    -5.5200 h1         1 E3O       0.072700
     35 HA          -7.5000     1.0560    -7.1040 ho         1 E3O       0.452000
     36 H9C1        -5.6380     3.8840    -5.2730 hc         1 E3O       0.055200
     37 H9C2        -5.2180     2.9410    -6.6930 hc         1 E3O       0.055200
     38 H141        -2.9190     3.2680    -5.7700 hc         1 E3O       0.044700
     39 H142        -2.3520     1.6010    -5.6870 hc         1 E3O       0.044700
     40 H151        -1.5170     3.9890    -3.9690 hc         1 E3O       0.051700
     41 H152        -0.4990     2.9900    -4.9900 hc         1 E3O       0.051700
     42 H17          0.9380     3.0260    -2.8810 ha         1 E3O       0.126000
     43 H3           1.9320     1.1270    -0.0230 ho         1 E3O       0.464000
     44 H19          0.0370    -0.0120     0.0330 ha         1 E3O       0.113000
     45 H20         -2.1560    -0.3770    -0.9930 ha         1 E3O       0.110000
@<TRIPOS>BOND
     1     1     2 1   
     2     1    12 1   
     3     1    21 1   
     4     1    22 1   
     5     2     3 1   
     6     2    23 1   
     7     2    24 1   
     8     3     4 1   
     9     3    26 1   
    10     3    27 1   
    11     4     5 1   
    12     4     6 1   
    13     4    11 1   
    14     5    28 1   
    15     5    29 1   
    16     5    30 1   
    17     6     7 1   
    18     6     8 1   
    19     6    31 1   
    20     7    33 1   
    21     8     9 1   
    22     8    10 1   
    23     8    34 1   
    24     9    35 1   
    25    10    11 1   
    26    10    36 1   
    27    10    37 1   
    28    11    12 1   
    29    11    32 1   
    30    12    13 1   
    31    12    25 1   
    32    13    14 1   
    33    13    38 1   
    34    13    39 1   
    35    14    15 1   
    36    14    40 1   
    37    14    41 1   
    38    15    16 ar  
    39    15    21 ar  
    40    16    17 ar  
    41    16    42 1   
    42    17    18 1   
    43    17    19 ar  
    44    18    43 1   
    45    19    20 ar  
    46    19    44 1   
    47    20    21 ar  
    48    20    45 1   
@<TRIPOS>SUBSTRUCTURE
     1 E3O         1 TEMP              0 ****  ****    0 ROOT
