@<TRIPOS>MOLECULE
E3P
   57    59     1     0     0
SMALL
bcc


@<TRIPOS>ATOM
      1 C1          -7.6060     3.2060     0.4940 c          1 E3P       0.928600
      2 N1          -4.9700    -0.3070    -0.2080 ns         1 E3P      -0.535900
      3 C2          -6.8350     1.8820     0.6620 c3         1 E3P      -0.213400
      4 O2          -4.5040    -2.3860     0.4960 o          1 E3P      -0.635100
      5 C3          -7.1170     0.8340    -0.4040 c3         1 E3P      -0.066400
      6 C4          -6.3970    -0.4910    -0.1450 c3         1 E3P       0.026700
      7 C5          -6.8460    -1.5260    -1.1780 c          1 E3P       0.668100
      8 O5          -6.2860    -1.6460    -2.2560 o          1 E3P      -0.623100
      9 O6          -8.4870     3.2560    -0.3850 o          1 E3P      -0.840300
     10 C7          -2.6480    -0.9810    -0.0840 c3         1 E3P      -0.153400
     11 O7          -7.2820     4.1240     1.2750 o          1 E3P      -0.840300
     12 C8          -1.8220    -1.4290     1.1230 c3         1 E3P      -0.026100
     13 C9          -0.3600    -1.1460     0.9250 ca         1 E3P      -0.065300
     14 C10          0.4740    -2.0790     0.3170 ca         1 E3P      -0.127000
     15 C11          1.8170    -1.8100     0.1060 ca         1 E3P      -0.116500
     16 C12          2.3760    -0.5920     0.4960 cp         1 E3P      -0.050000
     17 C13          1.5380     0.3450     1.1030 ca         1 E3P      -0.116500
     18 C14          0.1950     0.0710     1.3130 ca         1 E3P      -0.127000
     19 C15          6.5520     0.2330    -0.1260 cp         1 E3P      -0.042000
     20 C16          5.5920     1.2390    -0.2500 ca         1 E3P      -0.118000
     21 C17          4.2480     0.9740    -0.0510 ca         1 E3P      -0.121500
     22 C19          3.8070    -0.3090     0.2810 cp         1 E3P      -0.017000
     23 C35          4.7670    -1.3150     0.4050 ca         1 E3P      -0.121500
     24 C36          6.1110    -1.0490     0.2060 ca         1 E3P      -0.118000
     25 C37          7.9850     0.5140    -0.3380 cp         1 E3P      -0.026000
     26 C38          8.5420     1.7300     0.0630 ca         1 E3P      -0.118500
     27 C39          9.8900     1.9940    -0.1340 ca         1 E3P      -0.130500
     28 C40         10.7080     1.0470    -0.7360 ca         1 E3P      -0.130000
     29 C41         10.1650    -0.1660    -1.1390 ca         1 E3P      -0.130500
     30 C42          8.8180    -0.4290    -0.9430 ca         1 E3P      -0.118500
     31 HN1         -4.6120     0.5500    -0.5970 hn         1 E3P       0.329500
     32 H2          -5.7670     2.1120     0.7090 hc         1 E3P       0.019200
     33 H2A         -7.0830     1.4720     1.6490 hc         1 E3P       0.019200
     34 H3          -8.1890     0.6370    -0.4460 hc         1 E3P       0.059200
     35 H3A         -6.8350     1.2070    -1.3930 hc         1 E3P       0.059200
     36 HN3         -8.3410    -2.1430     0.0920 hn         1 E3P       0.306500
     37 HN3A        -8.3400    -2.8960    -1.4530 hn         1 E3P       0.306500
     38 H4          -6.6660    -0.8460     0.8560 h1         1 E3P       0.062700
     39 H7          -2.3010    -1.5060    -0.9800 hc         1 E3P       0.060700
     40 H7A         -2.4940     0.0840    -0.2700 hc         1 E3P       0.060700
     41 H8          -2.1800    -0.9150     2.0180 hc         1 E3P       0.062200
     42 H8A         -1.9750    -2.4970     1.2880 hc         1 E3P       0.062200
     43 H10          0.0690    -3.0330    -0.0020 ha         1 E3P       0.136000
     44 H11          2.4320    -2.5550    -0.3850 ha         1 E3P       0.128500
     45 H13          1.9410     1.2910     1.4420 ha         1 E3P       0.128500
     46 H14         -0.4260     0.8140     1.8010 ha         1 E3P       0.136000
     47 H35          4.4670    -2.3150     0.6900 ha         1 E3P       0.135000
     48 H36          6.8280    -1.8490     0.3400 ha         1 E3P       0.130000
     49 H38          7.9240     2.4720     0.5530 ha         1 E3P       0.132500
     50 H39         10.3020     2.9400     0.1930 ha         1 E3P       0.127500
     51 H40         11.7590     1.2520    -0.8890 ha         1 E3P       0.127000
     52 H41         10.7910    -0.9100    -1.6160 ha         1 E3P       0.127500
     53 H42          8.4070    -1.3720    -1.2830 ha         1 E3P       0.132500
     54 N3          -7.9280    -2.2300    -0.8210 nt         1 E3P      -0.672000
     55 H16          5.8920     2.2400    -0.5340 ha         1 E3P       0.130000
     56 C6          -4.1160    -1.2960     0.0940 c          1 E3P       0.665100
     57 H17          3.5300     1.7740    -0.1850 ha         1 E3P       0.135000
@<TRIPOS>BOND
     1     1     3 1   
     2     1     9 1   
     3     1    11 1   
     4     2     6 1   
     5     2    31 1   
     6     2    56 1   
     7     3     5 1   
     8     3    32 1   
     9     3    33 1   
    10     4    56 2   
    11     5     6 1   
    12     5    34 1   
    13     5    35 1   
    14     6     7 1   
    15     6    38 1   
    16     7     8 2   
    17     7    54 1   
    18    10    12 1   
    19    10    39 1   
    20    10    40 1   
    21    10    56 1   
    22    12    13 1   
    23    12    41 1   
    24    12    42 1   
    25    13    14 ar  
    26    13    18 ar  
    27    14    15 ar  
    28    14    43 1   
    29    15    16 ar  
    30    15    44 1   
    31    16    17 ar  
    32    16    22 1   
    33    17    18 ar  
    34    17    45 1   
    35    18    46 1   
    36    19    20 ar  
    37    19    24 ar  
    38    19    25 1   
    39    20    21 ar  
    40    20    55 1   
    41    21    22 ar  
    42    21    57 1   
    43    22    23 ar  
    44    23    24 ar  
    45    23    47 1   
    46    24    48 1   
    47    25    26 ar  
    48    25    30 ar  
    49    26    27 ar  
    50    26    49 1   
    51    27    28 ar  
    52    27    50 1   
    53    28    29 ar  
    54    28    51 1   
    55    29    30 ar  
    56    29    52 1   
    57    30    53 1   
    58    36    54 1   
    59    37    54 1   
@<TRIPOS>SUBSTRUCTURE
     1 E3P         1 TEMP              0 ****  ****    0 ROOT
