@<TRIPOS>MOLECULE
E3P
   57    59     1     0     0
SMALL
No Charge or Current Charge


@<TRIPOS>ATOM
      1 C1          -7.1360     1.3620     2.5770 c          1 E3P       0.718000
      2 N1          -4.9760    -0.7190    -0.7950 ns         1 E3P      -0.468900
      3 C2          -6.4760     0.2940     1.6870 c3         1 E3P      -0.213400
      4 O2          -4.6640    -2.4470     0.6650 o          1 E3P      -0.635100
      5 C3          -6.9620     0.4440     0.2200 c3         1 E3P      -0.066400
      6 C4          -6.4550    -0.6580    -0.7550 c3         1 E3P       0.026700
      7 C5          -7.0280    -0.4740    -2.1940 c          1 E3P       0.601100
      8 O5          -6.3350    -0.2890    -3.1850 o          1 E3P      -0.623100
      9 O6          -8.2150     1.1000     3.0860 o          1 E3P      -0.735000
     10 C7          -2.6840    -1.4160    -0.2630 c3         1 E3P      -0.153400
     11 O7          -6.5800     2.4440     2.6870 o          1 E3P      -0.735000
     12 C8          -2.0270    -0.7530     0.9680 c3         1 E3P      -0.026100
     13 C9          -0.5270    -0.5650     0.7820 ca         1 E3P      -0.065300
     14 C10          0.3670    -1.5900     1.1410 ca         1 E3P      -0.109000
     15 C11          1.7510    -1.4190     0.9650 ca         1 E3P      -0.098500
     16 C12          2.2790    -0.2200     0.4230 cp         1 E3P      -0.050000
     17 C13          1.3630     0.8000     0.0640 ca         1 E3P      -0.098500
     18 C14         -0.0210     0.6300     0.2410 ca         1 E3P      -0.109000
     19 C15          6.5840     0.3090    -0.1260 cp         1 E3P      -0.042000
     20 C16          5.6540     0.8670    -1.0360 ca         1 E3P      -0.100000
     21 C17          4.2700     0.6970    -0.8600 ca         1 E3P      -0.103500
     22 C19          3.7550    -0.0390     0.2350 cp         1 E3P      -0.017000
     23 C35          4.6850    -0.5980     1.1450 ca         1 E3P      -0.103500
     24 C36          6.0690    -0.4280     0.9680 ca         1 E3P      -0.100000
     25 C37          8.0600     0.4900    -0.3150 cp         1 E3P      -0.026000
     26 C38          8.5890     1.6890    -0.8580 ca         1 E3P      -0.100500
     27 C39          9.9730     1.8600    -1.0340 ca         1 E3P      -0.112500
     28 C40         10.8590     0.8330    -0.6720 ca         1 E3P      -0.112000
     29 C41         10.3610    -0.3630    -0.1330 ca         1 E3P      -0.112500
     30 C42          8.9760    -0.5320     0.0440 ca         1 E3P      -0.100500
     31 HN1         -4.4890    -0.0770    -1.4100 hn         1 E3P       0.329500
     32 H2          -5.3890     0.4390     1.6690 hc         1 E3P       0.019200
     33 H2A         -6.7840    -0.7100     2.0050 hc         1 E3P       0.019200
     34 H3          -8.0590     0.4430     0.2210 hc         1 E3P       0.059200
     35 H3A         -6.6540     1.4260    -0.1600 hc         1 E3P       0.059200
     36 HN3         -8.9570    -0.6730    -1.5140 hn         1 E3P       0.306500
     37 HN3A        -8.7850    -0.3980    -3.2370 hn         1 E3P       0.306500
     38 H4          -6.8360    -1.6250    -0.4010 h1         1 E3P       0.062700
     39 H7          -2.2340    -2.4050    -0.4060 hc         1 E3P       0.060700
     40 H7A         -2.4860    -0.7870    -1.1390 hc         1 E3P       0.060700
     41 H8          -2.5080     0.2150     1.1570 hc         1 E3P       0.062200
     42 H8A         -2.2220    -1.3660     1.8570 hc         1 E3P       0.062200
     43 H10         -0.0100    -2.5230     1.5540 ha         1 E3P       0.118000
     44 H11          2.4180    -2.2320     1.2390 ha         1 E3P       0.110500
     45 H13          1.7270     1.7400    -0.3430 ha         1 E3P       0.110500
     46 H14         -0.7000     1.4310    -0.0420 ha         1 E3P       0.118000
     47 H35          4.3320    -1.1560     2.0080 ha         1 E3P       0.117000
     48 H36          6.7470    -0.8590     1.7000 ha         1 E3P       0.112000
     49 H38          7.9210     2.5020    -1.1320 ha         1 E3P       0.114500
     50 H39         10.3570     2.7890    -1.4490 ha         1 E3P       0.109500
     51 H40         11.9310     0.9650    -0.8090 ha         1 E3P       0.109000
     52 H41         11.0460    -1.1610     0.1450 ha         1 E3P       0.109500
     53 H42          8.6110    -1.4720     0.4500 ha         1 E3P       0.114500
     54 N3          -8.3740    -0.5160    -2.3230 nt         1 E3P      -0.605000
     55 H16          6.0070     1.4260    -1.9000 ha         1 E3P       0.112000
     56 C6          -4.1920    -1.5840    -0.0630 c          1 E3P       0.598100
     57 H17          3.5920     1.1290    -1.5910 ha         1 E3P       0.117000
@<TRIPOS>BOND
     1     1     3 1   
     2     1     9 1   
     3     1    11 1   
     4     2     6 1   
     5     2    31 1   
     6     2    56 1   
     7     3     5 1   
     8     3    32 1   
     9     3    33 1   
    10     4    56 2   
    11     5     6 1   
    12     5    34 1   
    13     5    35 1   
    14     6     7 1   
    15     6    38 1   
    16     7     8 2   
    17     7    54 1   
    18    10    12 1   
    19    10    39 1   
    20    10    40 1   
    21    10    56 1   
    22    12    13 1   
    23    12    41 1   
    24    12    42 1   
    25    13    14 ar  
    26    13    18 ar  
    27    14    15 ar  
    28    14    43 1   
    29    15    16 ar  
    30    15    44 1   
    31    16    17 ar  
    32    16    22 1   
    33    17    18 ar  
    34    17    45 1   
    35    18    46 1   
    36    19    20 ar  
    37    19    24 ar  
    38    19    25 1   
    39    20    21 ar  
    40    20    55 1   
    41    21    22 ar  
    42    21    57 1   
    43    22    23 ar  
    44    23    24 ar  
    45    23    47 1   
    46    24    48 1   
    47    25    26 ar  
    48    25    30 ar  
    49    26    27 ar  
    50    26    49 1   
    51    27    28 ar  
    52    27    50 1   
    53    28    29 ar  
    54    28    51 1   
    55    29    30 ar  
    56    29    52 1   
    57    30    53 1   
    58    36    54 1   
    59    37    54 1   
@<TRIPOS>SUBSTRUCTURE
     1 E3P         1 TEMP              0 ****  ****    0 ROOT
