@<TRIPOS>MOLECULE
E3Q
   67    70     1     0     0
SMALL
No Charge or Current Charge


@<TRIPOS>ATOM
      1 C1          -4.4420     3.1330    -2.6900 c3         1 E3Q       0.149900
      2 C2          -4.5880     2.3340    -0.3520 ca         1 E3Q       0.140100
      3 O3          -3.6840    -3.1190    -0.3170 os         1 E3Q      -0.319100
      4 C4          -6.4670     2.9100     1.1020 ca         1 E3Q      -0.071000
      5 C6          -4.6720     1.4980     1.9390 ca         1 E3Q      -0.050000
      6 C7          -4.0110     1.5820     0.6960 ca         1 E3Q      -0.119300
      7 C9          -1.9630    -1.4650     0.0070 ca         1 E3Q       0.115100
      8 C11          0.4180    -2.0830    -0.1630 ca         1 E3Q      -0.111900
      9 C12          0.0240    -3.4110    -0.4370 ca         1 E3Q      -0.087000
     10 C14         -2.3360    -2.7990    -0.2700 ca         1 E3Q       0.127100
     11 C15         -4.1530    -4.4510    -0.5920 c3         1 E3Q       0.144900
     12 C16          1.8700    -1.6790    -0.0980 ce         1 E3Q       0.385900
     13 C18          3.7160     1.7470     1.5910 c3         1 E3Q      -0.083900
     14 C20          4.5170     4.2390     1.4100 c3         1 E3Q      -0.071400
     15 C21          4.3200     4.2220    -0.1240 c3         1 E3Q      -0.071400
     16 C22          5.0890     3.1250    -0.8930 c3         1 E3Q      -0.067900
     17 C23          4.3520     1.7650    -0.9360 c3         1 E3Q      -0.083900
     18 C24          4.2700    -1.5080    -0.1300 c          1 E3Q       0.545000
     19 C25          3.1310    -2.5340    -0.3220 c5         1 E3Q      -0.205300
     20 C26          3.2370    -3.1200    -1.7600 c3         1 E3Q      -0.067100
     21 C27          3.3080    -3.6640     0.7340 c3         1 E3Q      -0.067100
     22 O1          -3.9260     2.3990    -1.5650 os         1 E3Q      -0.351100
     23 C3          -5.8190     2.9970    -0.1410 ca         1 E3Q      -0.198000
     24 C5          -5.8940     2.1600     2.1410 ca         1 E3Q      -0.150000
     25 C8          -2.6860     0.8510     0.5120 c3         1 E3Q       0.217900
     26 O2          -2.9630    -0.5300     0.2210 os         1 E3Q      -0.332100
     27 C10         -0.5930    -1.1180     0.0590 ca         1 E3Q      -0.144000
     28 C13         -1.3330    -3.7670    -0.4910 ca         1 E3Q      -0.183000
     29 N1           2.2400    -0.4700     0.1740 n2         1 E3Q      -0.432300
     30 N2           3.5950    -0.3210     0.1790 n          1 E3Q      -0.185800
     31 C17          4.3080     0.9600     0.3880 c3         1 E3Q       0.146700
     32 C19          4.6360     2.8710     2.1210 c3         1 E3Q      -0.067900
     33 O4           5.4820    -1.6560    -0.2280 o          1 E3Q      -0.524000
     34 H1          -3.7600     3.0480    -3.5440 h1         1 E3Q       0.041033
     35 H2          -5.4200     2.7410    -2.9960 h1         1 E3Q       0.041033
     36 H3          -4.5490     4.1980    -2.4450 h1         1 E3Q       0.041033
     37 H4          -7.4140     3.4220     1.2600 ha         1 E3Q       0.111000
     38 H5          -4.2360     0.9170     2.7500 ha         1 E3Q       0.137000
     39 H6           0.7600    -4.1870    -0.6120 ha         1 E3Q       0.115000
     40 H7          -3.7880    -5.1570     0.1650 h1         1 E3Q       0.041367
     41 H8          -5.2490    -4.4770    -0.5800 h1         1 E3Q       0.041367
     42 H9          -3.8160    -4.7870    -1.5810 h1         1 E3Q       0.041367
     43 H10          2.7260     2.1480     1.3390 hc         1 E3Q       0.050700
     44 H11          3.5600     1.0350     2.4110 hc         1 E3Q       0.050700
     45 H12          5.4180     4.8190     1.6430 hc         1 E3Q       0.036450
     46 H13          3.6800     4.7940     1.8520 hc         1 E3Q       0.036450
     47 H14          3.2490     4.1340    -0.3480 hc         1 E3Q       0.036450
     48 H15          5.2180     3.4660    -1.9280 hc         1 E3Q       0.039200
     49 H16          3.3270     1.9240    -1.2940 hc         1 E3Q       0.050700
     50 H17          4.8410     1.1400    -1.6930 hc         1 E3Q       0.050700
     51 H18          4.2060    -3.6100    -1.9190 hc         1 E3Q       0.048367
     52 H19          2.4620    -3.8640    -1.9690 hc         1 E3Q       0.048367
     53 H20          3.1430    -2.3290    -2.5130 hc         1 E3Q       0.048367
     54 H21          3.2610    -3.2590     1.7520 hc         1 E3Q       0.048367
     55 H22          2.5390    -4.4380     0.6550 hc         1 E3Q       0.048367
     56 H23          4.2800    -4.1620     0.6240 hc         1 E3Q       0.048367
     57 H24         -6.2870     3.5840    -0.9260 ha         1 E3Q       0.116000
     58 H25         -6.3970     2.0910     3.1030 ha         1 E3Q       0.116000
     59 H26         -2.1050     1.3100    -0.2990 h1         1 E3Q       0.049700
     60 H27         -2.0970     0.9380     1.4340 h1         1 E3Q       0.049700
     61 H28         -0.3010    -0.0940     0.2710 ha         1 E3Q       0.141000
     62 H29         -1.5850    -4.8020    -0.7060 ha         1 E3Q       0.120000
     63 H30          5.3450     0.7150     0.6530 h1         1 E3Q       0.071700
     64 H31          4.4190     3.0270     3.1850 hc         1 E3Q       0.039200
     65 H32          5.6780     2.5320     2.0780 hc         1 E3Q       0.039200
     66 H33          4.6240     5.2020    -0.5120 hc         1 E3Q       0.036450
     67 H34          6.0980     3.0020    -0.4810 hc         1 E3Q       0.039200
@<TRIPOS>BOND
     1     1    22 1   
     2     1    34 1   
     3     1    35 1   
     4     1    36 1   
     5     2     6 ar  
     6     2    22 1   
     7     2    23 ar  
     8     3    10 1   
     9     3    11 1   
    10     4    23 ar  
    11     4    24 ar  
    12     4    37 1   
    13     5     6 ar  
    14     5    24 ar  
    15     5    38 1   
    16     6    25 1   
    17     7    10 ar  
    18     7    26 1   
    19     7    27 ar  
    20     8     9 ar  
    21     8    12 1   
    22     8    27 ar  
    23     9    28 ar  
    24     9    39 1   
    25    10    28 ar  
    26    11    40 1   
    27    11    41 1   
    28    11    42 1   
    29    12    19 1   
    30    12    29 2   
    31    13    31 1   
    32    13    32 1   
    33    13    43 1   
    34    13    44 1   
    35    14    15 1   
    36    14    32 1   
    37    14    45 1   
    38    14    46 1   
    39    15    16 1   
    40    15    47 1   
    41    15    66 1   
    42    16    17 1   
    43    16    48 1   
    44    16    67 1   
    45    17    31 1   
    46    17    49 1   
    47    17    50 1   
    48    18    19 1   
    49    18    30 1   
    50    18    33 2   
    51    19    20 1   
    52    19    21 1   
    53    20    51 1   
    54    20    52 1   
    55    20    53 1   
    56    21    54 1   
    57    21    55 1   
    58    21    56 1   
    59    23    57 1   
    60    24    58 1   
    61    25    26 1   
    62    25    59 1   
    63    25    60 1   
    64    27    61 1   
    65    28    62 1   
    66    29    30 1   
    67    30    31 1   
    68    31    63 1   
    69    32    64 1   
    70    32    65 1   
@<TRIPOS>SUBSTRUCTURE
     1 E3Q         1 TEMP              0 ****  ****    0 ROOT
