@<TRIPOS>MOLECULE
E3Q
   67    70     1     0     0
SMALL
bcc


@<TRIPOS>ATOM
      1 C1          -2.6050     4.6650    -0.2260 c3         1 E3Q       0.126700
      2 C2          -3.9410     2.7040    -0.0500 ca         1 E3Q       0.140100
      3 O3          -3.5060    -3.3040     0.0780 os         1 E3Q      -0.295900
      4 C4          -6.3440     2.7570     0.0230 ca         1 E3Q      -0.089000
      5 C6          -5.1880     0.6570     0.0870 ca         1 E3Q      -0.068000
      6 C7          -3.9630     1.3030     0.0180 ca         1 E3Q      -0.119300
      7 C9          -1.8550    -1.6570     0.0460 ca         1 E3Q       0.115100
      8 C11          0.4990    -2.2310     0.0040 ca         1 E3Q      -0.111900
      9 C12          0.1560    -3.5730     0.0110 ca         1 E3Q      -0.105000
     10 C14         -2.1940    -3.0310     0.0540 ca         1 E3Q       0.127100
     11 C15         -3.9040    -4.6620     0.0830 c3         1 E3Q       0.121700
     12 C16          1.8870    -1.7750    -0.0200 ce         1 E3Q       0.385900
     13 C18          3.6800     1.7040     1.2820 c3         1 E3Q      -0.083900
     14 C20          3.9070     4.2570     0.9210 c3         1 E3Q      -0.071400
     15 C21          3.2710     4.1060    -0.4610 c3         1 E3Q      -0.071400
     16 C22          4.0270     3.1900    -1.4240 c3         1 E3Q      -0.067900
     17 C23          3.6240     1.7220    -1.3140 c3         1 E3Q      -0.083900
     18 C24          4.1930    -1.5100    -0.0650 c          1 E3Q       0.687500
     19 C25          3.1410    -2.6130    -0.0520 c5         1 E3Q      -0.205300
     20 C26          3.2910    -3.4450    -1.3300 c3         1 E3Q      -0.067100
     21 C27          3.3410    -3.4650     1.2060 c3         1 E3Q      -0.067100
     22 O1          -2.7140     3.2590    -0.1170 os         1 E3Q      -0.327900
     23 C3          -5.1270     3.4280    -0.0480 ca         1 E3Q      -0.216000
     24 C5          -6.3800     1.3760     0.0900 ca         1 E3Q      -0.168000
     25 C8          -2.6500     0.5720     0.0130 c3         1 E3Q       0.194700
     26 O2          -2.9020    -0.8130     0.0650 os         1 E3Q      -0.308900
     27 C10         -0.5330    -1.2750     0.0220 ca         1 E3Q      -0.162000
     28 C13         -1.1790    -3.9700     0.0360 ca         1 E3Q      -0.201000
     29 N1           2.1530    -0.5210    -0.0150 n2         1 E3Q      -0.432300
     30 N2           3.5060    -0.3460    -0.0440 n          1 E3Q      -0.252800
     31 C17          4.0430     1.0040    -0.0310 c3         1 E3Q       0.146700
     32 C19          4.4920     2.9770     1.5180 c3         1 E3Q      -0.067900
     33 O4           5.4020    -1.6430    -0.0870 o          1 E3Q      -0.599500
     34 H1          -1.5430     4.8860    -0.3000 h1         1 E3Q       0.041033
     35 H2          -3.1070     5.0430    -1.1200 h1         1 E3Q       0.041033
     36 H3          -3.0100     5.1760     0.6510 h1         1 E3Q       0.041033
     37 H4          -7.2620     3.3300     0.0230 ha         1 E3Q       0.129000
     38 H5          -5.2240    -0.4230     0.1380 ha         1 E3Q       0.155000
     39 H6           0.9110    -4.3430    -0.0010 ha         1 E3Q       0.133000
     40 H7          -3.5360    -5.1900     0.9660 h1         1 E3Q       0.041367
     41 H8          -4.9900    -4.6650     0.0990 h1         1 E3Q       0.041367
     42 H9          -3.5610    -5.1880    -0.8120 h1         1 E3Q       0.041367
     43 H10          2.6060     1.9090     1.3230 hc         1 E3Q       0.050700
     44 H11          3.8850     0.9980     2.0910 hc         1 E3Q       0.050700
     45 H12          4.7040     5.0030     0.8710 hc         1 E3Q       0.036450
     46 H13          3.1560     4.6670     1.6020 hc         1 E3Q       0.036450
     47 H14          2.2470     3.7310    -0.3600 hc         1 E3Q       0.036450
     48 H15          3.8120     3.5020    -2.4490 hc         1 E3Q       0.039200
     49 H16          2.5370     1.6550    -1.4190 hc         1 E3Q       0.050700
     50 H17          4.0500     1.1680    -2.1560 hc         1 E3Q       0.050700
     51 H18          4.2880    -3.8850    -1.3620 hc         1 E3Q       0.048367
     52 H19          2.5680    -4.2590    -1.3660 hc         1 E3Q       0.048367
     53 H20          3.1580    -2.8360    -2.2240 hc         1 E3Q       0.048367
     54 H21          3.2410    -2.8700     2.1140 hc         1 E3Q       0.048367
     55 H22          2.6220    -4.2810     1.2570 hc         1 E3Q       0.048367
     56 H23          4.3390    -3.9020     1.1940 hc         1 E3Q       0.048367
     57 H24         -5.1240     4.5080    -0.0990 ha         1 E3Q       0.134000
     58 H25         -7.3250     0.8530     0.1450 ha         1 E3Q       0.134000
     59 H26         -2.0800     0.8230    -0.8910 h1         1 E3Q       0.049700
     60 H27         -2.0410     0.8850     0.8710 h1         1 E3Q       0.049700
     61 H28         -0.2640    -0.2280     0.0150 ha         1 E3Q       0.159000
     62 H29         -1.4010    -5.0280     0.0410 ha         1 E3Q       0.138000
     63 H30          5.1290     0.8770    -0.0440 h1         1 E3Q       0.071700
     64 H31          4.6130     3.1270     2.5930 hc         1 E3Q       0.039200
     65 H32          5.5060     2.8210     1.1350 hc         1 E3Q       0.039200
     66 H33          3.1720     5.1010    -0.9010 hc         1 E3Q       0.036450
     67 H34          5.1090     3.3070    -1.3000 hc         1 E3Q       0.039200
@<TRIPOS>BOND
     1     1    22 1   
     2     1    34 1   
     3     1    35 1   
     4     1    36 1   
     5     2     6 ar  
     6     2    22 1   
     7     2    23 ar  
     8     3    10 1   
     9     3    11 1   
    10     4    23 ar  
    11     4    24 ar  
    12     4    37 1   
    13     5     6 ar  
    14     5    24 ar  
    15     5    38 1   
    16     6    25 1   
    17     7    10 ar  
    18     7    26 1   
    19     7    27 ar  
    20     8     9 ar  
    21     8    12 1   
    22     8    27 ar  
    23     9    28 ar  
    24     9    39 1   
    25    10    28 ar  
    26    11    40 1   
    27    11    41 1   
    28    11    42 1   
    29    12    19 1   
    30    12    29 2   
    31    13    31 1   
    32    13    32 1   
    33    13    43 1   
    34    13    44 1   
    35    14    15 1   
    36    14    32 1   
    37    14    45 1   
    38    14    46 1   
    39    15    16 1   
    40    15    47 1   
    41    15    66 1   
    42    16    17 1   
    43    16    48 1   
    44    16    67 1   
    45    17    31 1   
    46    17    49 1   
    47    17    50 1   
    48    18    19 1   
    49    18    30 1   
    50    18    33 2   
    51    19    20 1   
    52    19    21 1   
    53    20    51 1   
    54    20    52 1   
    55    20    53 1   
    56    21    54 1   
    57    21    55 1   
    58    21    56 1   
    59    23    57 1   
    60    24    58 1   
    61    25    26 1   
    62    25    59 1   
    63    25    60 1   
    64    27    61 1   
    65    28    62 1   
    66    29    30 1   
    67    30    31 1   
    68    31    63 1   
    69    32    64 1   
    70    32    65 1   
@<TRIPOS>SUBSTRUCTURE
     1 E3Q         1 TEMP              0 ****  ****    0 ROOT
