@<TRIPOS>MOLECULE
E3R
   66    68     1     0     0
SMALL
No Charge or Current Charge


@<TRIPOS>ATOM
      1 C1         111.4720   110.6270   126.4410 ca         1 E3R      -0.185000
      2 C2         111.0870   111.5610   125.4600 ca         1 E3R       0.007700
      3 C3         110.4190   111.0610   124.3200 ca         1 E3R      -0.242000
      4 C4         110.1010   109.6990   124.1960 ca         1 E3R       0.172100
      5 C5         110.4130   108.7790   125.2260 ca         1 E3R      -0.188300
      6 N1         107.7340   112.8430   132.2790 n1         1 E3R      -0.467000
      7 C10        108.5600   106.9360   124.7990 c6         1 E3R      -0.062400
      8 C11        108.3420   105.4040   124.6190 c6         1 E3R      -0.104700
      9 C12        108.7990   104.6260   125.8870 c6         1 E3R      -0.074400
     10 C13        110.2450   104.9950   126.2990 c6         1 E3R      -0.063400
     11 C14        106.8640   105.0970   124.2360 c3         1 E3R       0.161600
     12 C17        111.4410   113.0630   125.6440 c3         1 E3R       0.002300
     13 C18        110.8930   113.5840   127.0150 c3         1 E3R      -0.064400
     14 C19        110.8910   113.9660   124.4990 c3         1 E3R      -0.083100
     15 C20        112.9880   113.2070   125.6410 c3         1 E3R      -0.083100
     16 C21        109.3660   113.4230   127.2300 c3         1 E3R      -0.074400
     17 C22        108.9050   113.8980   128.6260 c3         1 E3R      -0.079400
     18 C23        107.3810   113.7350   128.8440 c3         1 E3R      -0.069400
     19 C24        106.8770   114.2430   130.2190 c3         1 E3R      -0.017300
     20 C25        107.3670   113.4560   131.3590 c1         1 E3R       0.299900
     21 C6         111.1690   109.2650   126.3200 ca         1 E3R       0.182100
     22 C7         110.0480   107.2680   125.1510 c6         1 E3R       0.015600
     23 C8         110.3810   106.5340   126.4870 c6         1 E3R      -0.092700
     24 C9         111.7420   107.0100   127.0680 c6         1 E3R       0.198000
     25 O1         111.6660   108.4290   127.2980 os         1 E3R      -0.352100
     26 O2         106.6690   103.7180   123.8970 oh         1 E3R      -0.657000
     27 O3         109.5300   109.2950   123.0280 oh         1 E3R      -0.538100
     28 H1         112.0350   110.9490   127.3120 ha         1 E3R       0.129000
     29 H2         110.1450   111.7250   123.5070 ha         1 E3R       0.113000
     30 H3         107.8980   107.3230   125.5870 hc         1 E3R       0.050200
     31 H4         108.2430   107.4270   123.8750 hc         1 E3R       0.050200
     32 H5         108.9540   105.0720   123.7680 hc         1 E3R       0.061700
     33 H6         108.7420   103.5430   125.7130 hc         1 E3R       0.038200
     34 H7         108.1170   104.8430   126.7210 hc         1 E3R       0.038200
     35 H8         110.9510   104.6360   125.5370 hc         1 E3R       0.043200
     36 H9         110.4880   104.4630   127.2280 hc         1 E3R       0.043200
     37 H10        106.2140   105.3800   125.0760 h1         1 E3R       0.040700
     38 H11        106.5870   105.7290   123.3810 h1         1 E3R       0.040700
     39 H12        112.2890   105.3270   128.3940 hc         1 E3R       0.046700
     40 H13        111.1950   106.5020   129.1430 hc         1 E3R       0.046700
     41 H14        112.9090   106.8870   128.9340 hc         1 E3R       0.046700
     42 H15        112.8640   107.2360   125.1640 hc         1 E3R       0.046700
     43 H16        113.1200   105.6810   125.9640 hc         1 E3R       0.046700
     44 H17        113.8930   107.1390   126.5920 hc         1 E3R       0.046700
     45 H18        111.1490   114.6460   127.1210 hc         1 E3R       0.041200
     46 H19        111.4130   113.0750   127.8360 hc         1 E3R       0.041200
     47 H20        111.3520   113.7080   123.5380 hc         1 E3R       0.036033
     48 H21        111.1120   115.0220   124.6940 hc         1 E3R       0.036033
     49 H22        109.8050   113.8670   124.3920 hc         1 E3R       0.036033
     50 H23        113.4110   112.8210   124.7050 hc         1 E3R       0.036033
     51 H24        113.4470   112.6540   126.4690 hc         1 E3R       0.036033
     52 H25        113.2860   114.2580   125.7380 hc         1 E3R       0.036033
     53 H26        109.0840   112.3710   127.1050 hc         1 E3R       0.043200
     54 H27        108.8210   113.9930   126.4690 hc         1 E3R       0.043200
     55 H28        109.1770   114.9530   128.7550 hc         1 E3R       0.043700
     56 H29        109.4490   113.3310   129.3910 hc         1 E3R       0.043700
     57 H30        107.1030   112.6800   128.7210 hc         1 E3R       0.049200
     58 H31        106.8520   114.2890   128.0580 hc         1 E3R       0.049200
     59 H32        105.7810   114.2160   130.2320 hc         1 E3R       0.068700
     60 H33        107.1700   115.2900   130.3580 hc         1 E3R       0.068700
     61 H34        110.6720   106.8390   124.3540 hc         1 E3R       0.059700
     62 H35        109.6220   106.8350   127.2240 hc         1 E3R       0.062700
     63 H36        106.9120   103.1940   124.6910 ho         1 E3R       0.437000
     64 H37        109.4300   110.0790   122.4500 ho         1 E3R       0.463000
     65 C15        112.0490   106.3950   128.4630 c3         1 E3R      -0.099600
     66 C16        112.9710   106.7530   126.1410 c3         1 E3R      -0.099600
@<TRIPOS>BOND
     1     1     2 ar  
     2     1    21 ar  
     3     1    28 1   
     4     2     3 ar  
     5     2    12 1   
     6     3     4 ar  
     7     3    29 1   
     8     4     5 ar  
     9     4    27 1   
    10     5    21 ar  
    11     5    22 1   
    12     6    20 3   
    13     7     8 1   
    14     7    22 1   
    15     7    30 1   
    16     7    31 1   
    17     8     9 1   
    18     8    11 1   
    19     8    32 1   
    20     9    10 1   
    21     9    33 1   
    22     9    34 1   
    23    10    23 1   
    24    10    35 1   
    25    10    36 1   
    26    11    26 1   
    27    11    37 1   
    28    11    38 1   
    29    12    13 1   
    30    12    14 1   
    31    12    15 1   
    32    13    16 1   
    33    13    45 1   
    34    13    46 1   
    35    14    47 1   
    36    14    48 1   
    37    14    49 1   
    38    15    50 1   
    39    15    51 1   
    40    15    52 1   
    41    16    17 1   
    42    16    53 1   
    43    16    54 1   
    44    17    18 1   
    45    17    55 1   
    46    17    56 1   
    47    18    19 1   
    48    18    57 1   
    49    18    58 1   
    50    19    20 1   
    51    19    59 1   
    52    19    60 1   
    53    21    25 1   
    54    22    23 1   
    55    22    61 1   
    56    23    24 1   
    57    23    62 1   
    58    24    25 1   
    59    24    65 1   
    60    24    66 1   
    61    26    63 1   
    62    27    64 1   
    63    39    65 1   
    64    40    65 1   
    65    41    65 1   
    66    42    66 1   
    67    43    66 1   
    68    44    66 1   
@<TRIPOS>SUBSTRUCTURE
     1 E3R         1 TEMP              0 ****  ****    0 ROOT
