@<TRIPOS>MOLECULE
E3R
   66    68     1     0     0
SMALL
bcc


@<TRIPOS>ATOM
      1 C1         111.4400   110.5820   126.4750 ca         1 E3R      -0.203000
      2 C2         111.0520   111.5050   125.5110 ca         1 E3R       0.007700
      3 C3         110.4050   111.0250   124.3780 ca         1 E3R      -0.260000
      4 C4         110.1300   109.6680   124.2310 ca         1 E3R       0.172100
      5 C5         110.4360   108.7370   125.2300 ca         1 E3R      -0.188300
      6 N1         107.9150   113.0290   132.1650 n1         1 E3R      -0.377800
      7 C10        108.6210   106.9600   124.8160 c6         1 E3R      -0.062400
      8 C11        108.4040   105.4590   124.6200 c6         1 E3R      -0.104700
      9 C12        108.8910   104.6670   125.8310 c6         1 E3R      -0.074400
     10 C13        110.3170   105.0350   126.2250 c6         1 E3R      -0.063400
     11 C14        106.9360   105.1910   124.3080 c3         1 E3R       0.138400
     12 C17        111.3870   112.9810   125.6990 c3         1 E3R       0.002300
     13 C18        110.8250   113.4840   127.0430 c3         1 E3R      -0.064400
     14 C19        110.8510   113.8510   124.5610 c3         1 E3R      -0.083100
     15 C20        112.9140   113.1410   125.7290 c3         1 E3R      -0.083100
     16 C21        109.3170   113.3790   127.2210 c3         1 E3R      -0.074400
     17 C22        108.8760   113.8680   128.5950 c3         1 E3R      -0.079400
     18 C23        107.3710   113.7750   128.7970 c3         1 E3R      -0.069400
     19 C24        106.9030   114.3290   130.1450 c3         1 E3R      -0.017300
     20 C25        107.4650   113.6040   131.2750 c1         1 E3R       0.210700
     21 C6         111.1530   109.2280   126.3250 ca         1 E3R       0.182100
     22 C7         110.0920   107.2680   125.1320 c6         1 E3R       0.015600
     23 C8         110.4330   106.5400   126.4380 c6         1 E3R      -0.092700
     24 C9         111.7570   107.0200   127.0290 c6         1 E3R       0.174800
     25 O1         111.6160   108.4250   127.3040 os         1 E3R      -0.328900
     26 O2         106.6470   103.8460   123.9930 oh         1 E3R      -0.594800
     27 O3         109.5670   109.2040   123.0940 oh         1 E3R      -0.499100
     28 H1         111.9900   110.8910   127.3560 ha         1 E3R       0.147000
     29 H2         110.1200   111.6980   123.5780 ha         1 E3R       0.131000
     30 H3         107.9980   107.3240   125.6410 hc         1 E3R       0.050200
     31 H4         108.2920   107.4820   123.9200 hc         1 E3R       0.050200
     32 H5         108.9950   105.1490   123.7460 hc         1 E3R       0.061700
     33 H6         108.8350   103.5920   125.6350 hc         1 E3R       0.038200
     34 H7         108.2250   104.8670   126.6790 hc         1 E3R       0.038200
     35 H8         111.0120   104.7120   125.4430 hc         1 E3R       0.043200
     36 H9         110.5900   104.4900   127.1310 hc         1 E3R       0.043200
     37 H10        106.3230   105.5440   125.1500 h1         1 E3R       0.040700
     38 H11        106.6410   105.7790   123.4350 h1         1 E3R       0.040700
     39 H12        112.2660   105.3380   128.2910 hc         1 E3R       0.046700
     40 H13        111.1550   106.4830   129.0450 hc         1 E3R       0.046700
     41 H14        112.8730   106.8800   128.8760 hc         1 E3R       0.046700
     42 H15        112.8510   107.2990   125.1470 hc         1 E3R       0.046700
     43 H16        113.0840   105.7310   125.9130 hc         1 E3R       0.046700
     44 H17        113.8680   107.1570   126.5810 hc         1 E3R       0.046700
     45 H18        111.1270   114.5320   127.1590 hc         1 E3R       0.041200
     46 H19        111.3140   112.9440   127.8610 hc         1 E3R       0.041200
     47 H20        111.3110   113.5900   123.6060 hc         1 E3R       0.036033
     48 H21        111.0850   114.8980   124.7580 hc         1 E3R       0.036033
     49 H22        109.7700   113.7730   124.4390 hc         1 E3R       0.036033
     50 H23        113.3630   112.7970   124.7960 hc         1 E3R       0.036033
     51 H24        113.3660   112.5770   126.5460 hc         1 E3R       0.036033
     52 H25        113.1830   114.1910   125.8630 hc         1 E3R       0.036033
     53 H26        108.9930   112.3420   127.0850 hc         1 E3R       0.043200
     54 H27        108.8000   113.9640   126.4540 hc         1 E3R       0.043200
     55 H28        109.1960   114.9060   128.7340 hc         1 E3R       0.043700
     56 H29        109.3900   113.2840   129.3660 hc         1 E3R       0.043700
     57 H30        107.0390   112.7390   128.6950 hc         1 E3R       0.049200
     58 H31        106.8560   114.3440   128.0200 hc         1 E3R       0.049200
     59 H32        105.8150   114.2820   130.2260 hc         1 E3R       0.068700
     60 H33        107.1850   115.3790   130.2480 hc         1 E3R       0.068700
     61 H34        110.6980   106.8280   124.3270 hc         1 E3R       0.059700
     62 H35        109.6670   106.8150   127.1770 hc         1 E3R       0.062700
     63 H36        106.7060   103.3220   124.7970 ho         1 E3R       0.398000
     64 H37        109.3810   109.9340   122.4920 ho         1 E3R       0.424000
     65 C15        112.0240   106.3950   128.3910 c3         1 E3R      -0.099600
     66 C16        112.9530   106.7960   126.1090 c3         1 E3R      -0.099600
@<TRIPOS>BOND
     1     1     2 ar  
     2     1    21 ar  
     3     1    28 1   
     4     2     3 ar  
     5     2    12 1   
     6     3     4 ar  
     7     3    29 1   
     8     4     5 ar  
     9     4    27 1   
    10     5    21 ar  
    11     5    22 1   
    12     6    20 3   
    13     7     8 1   
    14     7    22 1   
    15     7    30 1   
    16     7    31 1   
    17     8     9 1   
    18     8    11 1   
    19     8    32 1   
    20     9    10 1   
    21     9    33 1   
    22     9    34 1   
    23    10    23 1   
    24    10    35 1   
    25    10    36 1   
    26    11    26 1   
    27    11    37 1   
    28    11    38 1   
    29    12    13 1   
    30    12    14 1   
    31    12    15 1   
    32    13    16 1   
    33    13    45 1   
    34    13    46 1   
    35    14    47 1   
    36    14    48 1   
    37    14    49 1   
    38    15    50 1   
    39    15    51 1   
    40    15    52 1   
    41    16    17 1   
    42    16    53 1   
    43    16    54 1   
    44    17    18 1   
    45    17    55 1   
    46    17    56 1   
    47    18    19 1   
    48    18    57 1   
    49    18    58 1   
    50    19    20 1   
    51    19    59 1   
    52    19    60 1   
    53    21    25 1   
    54    22    23 1   
    55    22    61 1   
    56    23    24 1   
    57    23    62 1   
    58    24    25 1   
    59    24    65 1   
    60    24    66 1   
    61    26    63 1   
    62    27    64 1   
    63    39    65 1   
    64    40    65 1   
    65    41    65 1   
    66    42    66 1   
    67    43    66 1   
    68    44    66 1   
@<TRIPOS>SUBSTRUCTURE
     1 E3R         1 TEMP              0 ****  ****    0 ROOT
