@<TRIPOS>MOLECULE
E3S
   63    66     1     0     0
SMALL
abcg2


@<TRIPOS>ATOM
      1 C4           0.1360     4.0110     1.3780 ca         1 E3S      -0.199000
      2 C5          -0.1570     2.6570     1.4420 ca         1 E3S      -0.067000
      3 C6          -0.7820     1.9910     0.3940 ca         1 E3S      -0.155300
      4 C7          -1.0630     0.5120     0.5090 c6         1 E3S       0.078000
      5 C10         -1.8250     0.5400    -1.7860 c6         1 E3S       0.101000
      6 C13         -0.8660     4.0710    -0.8100 ca         1 E3S      -0.149000
      7 C17         -5.4060    -1.5400    -0.4500 cc         1 E3S       0.114900
      8 C26          2.6170    -0.4270     0.1230 ca         1 E3S       0.002000
      9 C28          4.9990    -0.0720     0.0060 ca         1 E3S      -0.061000
     10 C1           0.6600     6.7550     1.0980 c3         1 E3S       0.146900
     11 C3          -0.2180     4.7280     0.2360 ca         1 E3S       0.158100
     12 N9          -2.0880     0.1110    -0.4240 n          1 E3S      -0.396800
     13 C11         -1.8980     2.0540    -1.8700 c6         1 E3S      -0.057100
     14 C12         -1.1500     2.7160    -0.7440 ca         1 E3S      -0.022300
     15 C14         -3.1910    -0.5340     0.0070 c          1 E3S       0.627100
     16 O15         -3.3770    -0.8310     1.1740 o          1 E3S      -0.572100
     17 C16         -4.2330    -0.8690    -1.0530 c3         1 E3S      -0.114200
     18 C18         -6.6440    -1.0980    -0.1780 cd         1 E3S      -0.381200
     19 C19         -7.3610    -2.2100     0.4120 c          1 E3S       0.542200
     20 O20         -8.4830    -2.2970     0.8810 o          1 E3S      -0.517000
     21 N21         -6.4770    -3.2640     0.3110 ns         1 E3S      -0.344400
     22 O22         -5.2500    -2.8320    -0.1270 os         1 E3S      -0.096200
     23 C23          0.1430    -0.4350     0.3100 c          1 E3S       0.589100
     24 O24         -0.0480    -1.6340     0.2590 o          1 E3S      -0.561100
     25 N25          1.3520     0.1580     0.2260 ns         1 E3S      -0.141000
     26 C27          3.7140     0.4310     0.1030 ca         1 E3S      -0.186000
     27 C29          5.2780    -1.4370    -0.0760 ca         1 E3S      -0.125300
     28 C30          4.1490    -2.2490    -0.0550 ca         1 E3S       0.197000
     29 F31          4.2880    -3.5870    -0.1330 f          1 E3S      -0.180000
     30 C32          2.8460    -1.7970     0.0400 ca         1 E3S      -0.179000
     31 C33          6.6990    -1.9860    -0.1770 c3         1 E3S       0.015300
     32 C34          7.0060    -2.8820     1.0330 c3         1 E3S      -0.085767
     33 C35          6.8740    -2.7740    -1.4850 c3         1 E3S      -0.085767
     34 C36          7.7330    -0.8580    -0.1830 c3         1 E3S      -0.085767
     35 H1           0.6250     4.4810     2.2190 ha         1 E3S       0.125000
     36 H2           0.1130     2.1120     2.3400 ha         1 E3S       0.121000
     37 H3          -1.4170     0.3000     1.5210 h1         1 E3S       0.119700
     38 H4          -0.8310     0.1870    -2.0770 h1         1 E3S       0.059700
     39 H5          -2.5220     0.0830    -2.4820 h1         1 E3S       0.059700
     40 H6          -1.1560     4.6370    -1.6880 ha         1 E3S       0.131000
     41 H7           5.8100     0.6410    -0.0030 ha         1 E3S       0.117000
     42 H8           0.0760     6.7490     2.0220 h1         1 E3S       0.044700
     43 H9           1.6570     6.3600     1.3070 h1         1 E3S       0.044700
     44 H10          0.7560     7.7810     0.7520 h1         1 E3S       0.044700
     45 H11         -1.5060     2.3860    -2.8330 hc         1 E3S       0.063700
     46 H12         -2.9450     2.3690    -1.8330 hc         1 E3S       0.063700
     47 H13         -3.7990    -1.5090    -1.8260 hc         1 E3S       0.088200
     48 H14         -4.5720     0.0420    -1.5520 hc         1 E3S       0.088200
     49 H15         -7.0270    -0.1050    -0.3390 ha         1 E3S       0.231000
     50 H16         -6.4000    -4.0190     0.9800 hn         1 E3S       0.348500
     51 H17          1.3560     1.1670     0.2350 hn         1 E3S       0.163000
     52 H18          3.5700     1.5020     0.1650 ha         1 E3S       0.114000
     53 H19          2.0430    -2.5160     0.0450 ha         1 E3S       0.165000
     54 H20          6.9210    -2.3160     1.9630 hc         1 E3S       0.037700
     55 H21          6.3450    -3.7440     1.1010 hc         1 E3S       0.037700
     56 H22          8.0290    -3.2560     0.9690 hc         1 E3S       0.037700
     57 H23          7.8980    -3.1440    -1.5610 hc         1 E3S       0.037700
     58 H24          6.2090    -3.6330    -1.5540 hc         1 E3S       0.037700
     59 H25          6.6900    -2.1340    -2.3500 hc         1 E3S       0.037700
     60 H26          7.7050    -0.2660     0.7340 hc         1 E3S       0.037700
     61 H27          8.7320    -1.2900    -0.2600 hc         1 E3S       0.037700
     62 H28          7.6040    -0.1810    -1.0300 hc         1 E3S       0.037700
     63 O2           0.0150     6.0400     0.0620 os         1 E3S      -0.337100
@<TRIPOS>BOND
     1     1     2 ar  
     2     1    11 ar  
     3     1    35 1   
     4     2     3 ar  
     5     2    36 1   
     6     3     4 1   
     7     3    14 ar  
     8     4    12 1   
     9     4    23 1   
    10     4    37 1   
    11     5    12 1   
    12     5    13 1   
    13     5    38 1   
    14     5    39 1   
    15     6    11 ar  
    16     6    14 ar  
    17     6    40 1   
    18     7    17 1   
    19     7    18 2   
    20     7    22 1   
    21     8    25 1   
    22     8    26 ar  
    23     8    30 ar  
    24     9    26 ar  
    25     9    27 ar  
    26     9    41 1   
    27    10    42 1   
    28    10    43 1   
    29    10    44 1   
    30    10    63 1   
    31    11    63 1   
    32    12    15 1   
    33    13    14 1   
    34    13    45 1   
    35    13    46 1   
    36    15    16 2   
    37    15    17 1   
    38    17    47 1   
    39    17    48 1   
    40    18    19 1   
    41    18    49 1   
    42    19    20 2   
    43    19    21 1   
    44    21    22 1   
    45    21    50 1   
    46    23    24 2   
    47    23    25 1   
    48    25    51 1   
    49    26    52 1   
    50    27    28 ar  
    51    27    31 1   
    52    28    29 1   
    53    28    30 ar  
    54    30    53 1   
    55    31    32 1   
    56    31    33 1   
    57    31    34 1   
    58    32    54 1   
    59    32    55 1   
    60    32    56 1   
    61    33    57 1   
    62    33    58 1   
    63    33    59 1   
    64    34    60 1   
    65    34    61 1   
    66    34    62 1   
@<TRIPOS>SUBSTRUCTURE
     1 E3S         1 TEMP              0 ****  ****    0 ROOT
