@<TRIPOS>MOLECULE
E3S
   63    66     1     0     0
SMALL
No Charge or Current Charge


@<TRIPOS>ATOM
      1 C4           0.1010     3.9930     0.6200 ca         1 E3S      -0.199000
      2 C5           0.0670     2.5910     0.7150 ca         1 E3S      -0.067000
      3 C6          -0.9010     1.8410     0.0110 ca         1 E3S      -0.155300
      4 C7          -0.9160     0.2930     0.1300 c6         1 E3S       0.078000
      5 C10         -2.6360     0.2960    -1.6980 c6         1 E3S       0.101000
      6 C13         -1.8270     3.9340    -0.8500 ca         1 E3S      -0.149000
      7 C17         -5.2280    -1.4320    -0.0040 cc         1 E3S       0.114900
      8 C26          2.8330    -0.7230     0.2470 ca         1 E3S       0.002000
      9 C28          5.0320    -0.9810     1.2850 ca         1 E3S      -0.061000
     10 C1           0.1100     6.8880     0.3410 c3         1 E3S       0.146900
     11 C3          -0.8460     4.6700    -0.1730 ca         1 E3S       0.158100
     12 N9          -2.1610    -0.3310    -0.4350 n          1 E3S      -0.396800
     13 C11         -2.9800     1.7740    -1.4770 c6         1 E3S      -0.057100
     14 C12         -1.8640     2.5300    -0.7630 ca         1 E3S      -0.022300
     15 C14         -2.7280    -1.4860     0.1630 c          1 E3S       0.627100
     16 O15         -2.2570    -1.9280     1.2030 o          1 E3S      -0.572100
     17 C16         -3.9790    -2.1380    -0.4350 c3         1 E3S      -0.114200
     18 C18         -6.1420    -0.7050    -0.7150 cd         1 E3S      -0.381200
     19 C19         -7.1470    -0.1690     0.1580 c          1 E3S       0.542200
     20 O20         -8.0600     0.5940    -0.1070 o          1 E3S      -0.517000
     21 N21         -6.8280    -0.6880     1.3780 ns         1 E3S      -0.344400
     22 O22         -5.5800    -1.4210     1.3310 os         1 E3S      -0.096200
     23 C23          0.3890    -0.3310    -0.4560 c          1 E3S       0.589100
     24 O24          0.4220    -0.8250    -1.5810 o          1 E3S      -0.561100
     25 N25          1.4910    -0.2790     0.3900 ns         1 E3S      -0.141000
     26 C27          3.6930    -0.5600     1.3420 ca         1 E3S      -0.186000
     27 C29          5.5670    -1.5850     0.1180 ca         1 E3S      -0.125300
     28 C30          4.6830    -1.7380    -0.9860 ca         1 E3S       0.197000
     29 F31          5.0930    -2.2950    -2.1470 f          1 E3S      -0.180000
     30 C32          3.3460    -1.3160    -0.9210 ca         1 E3S      -0.179000
     31 C33          7.0560    -2.0550     0.0510 c3         1 E3S       0.015300
     32 C34          7.1230    -3.5820    -0.2310 c3         1 E3S      -0.085767
     33 C35          7.8080    -1.2760    -1.0630 c3         1 E3S      -0.085767
     34 C36          7.8290    -1.8070     1.3810 c3         1 E3S      -0.085767
     35 H1           0.8630     4.5330     1.1730 ha         1 E3S       0.125000
     36 H2           0.7980     2.0990     1.3510 ha         1 E3S       0.121000
     37 H3          -0.8760     0.0700     1.2050 h1         1 E3S       0.119700
     38 H4          -1.8430     0.2220    -2.4560 h1         1 E3S       0.059700
     39 H5          -3.5200    -0.2000    -2.1130 h1         1 E3S       0.059700
     40 H6          -2.5700     4.4610    -1.4440 ha         1 E3S       0.131000
     41 H7           5.6330    -0.8220     2.1750 ha         1 E3S       0.117000
     42 H8           0.0570     6.7790     1.4320 h1         1 E3S       0.044700
     43 H9           1.1260     6.6380     0.0100 h1         1 E3S       0.044700
     44 H10         -0.0780     7.9410     0.0950 h1         1 E3S       0.044700
     45 H11         -3.2010     2.2440    -2.4450 hc         1 E3S       0.063700
     46 H12         -3.8990     1.8460    -0.8790 hc         1 E3S       0.063700
     47 H13         -4.0300    -3.1780    -0.0940 hc         1 E3S       0.088200
     48 H14         -3.9370    -2.1250    -1.5270 hc         1 E3S       0.088200
     49 H15         -6.1430    -0.4830    -1.7760 ha         1 E3S       0.231000
     50 H16         -7.0230    -0.1710     2.2300 hn         1 E3S       0.348500
     51 H17          1.3030     0.1470     1.2880 hn         1 E3S       0.163000
     52 H18          3.3230    -0.1020     2.2570 ha         1 E3S       0.114000
     53 H19          2.7280    -1.4620    -1.8000 ha         1 E3S       0.165000
     54 H20          6.5380    -4.1380     0.5120 hc         1 E3S       0.037700
     55 H21          6.7400    -3.8400    -1.2230 hc         1 E3S       0.037700
     56 H22          8.1570    -3.9450    -0.1850 hc         1 E3S       0.037700
     57 H23          8.8710    -1.5430    -1.0790 hc         1 E3S       0.037700
     58 H24          7.4080    -1.4880    -2.0600 hc         1 E3S       0.037700
     59 H25          7.7340    -0.1950    -0.8940 hc         1 E3S       0.037700
     60 H26          7.3680    -2.3500     2.2150 hc         1 E3S       0.037700
     61 H27          8.8680    -2.1510     1.3020 hc         1 E3S       0.037700
     62 H28          7.8590    -0.7390     1.6300 hc         1 E3S       0.037700
     63 O2          -0.8610     6.0440    -0.3050 os         1 E3S      -0.337100
@<TRIPOS>BOND
     1     1     2 ar  
     2     1    11 ar  
     3     1    35 1   
     4     2     3 ar  
     5     2    36 1   
     6     3     4 1   
     7     3    14 ar  
     8     4    12 1   
     9     4    23 1   
    10     4    37 1   
    11     5    12 1   
    12     5    13 1   
    13     5    38 1   
    14     5    39 1   
    15     6    11 ar  
    16     6    14 ar  
    17     6    40 1   
    18     7    17 1   
    19     7    18 2   
    20     7    22 1   
    21     8    25 1   
    22     8    26 ar  
    23     8    30 ar  
    24     9    26 ar  
    25     9    27 ar  
    26     9    41 1   
    27    10    42 1   
    28    10    43 1   
    29    10    44 1   
    30    10    63 1   
    31    11    63 1   
    32    12    15 1   
    33    13    14 1   
    34    13    45 1   
    35    13    46 1   
    36    15    16 2   
    37    15    17 1   
    38    17    47 1   
    39    17    48 1   
    40    18    19 1   
    41    18    49 1   
    42    19    20 2   
    43    19    21 1   
    44    21    22 1   
    45    21    50 1   
    46    23    24 2   
    47    23    25 1   
    48    25    51 1   
    49    26    52 1   
    50    27    28 ar  
    51    27    31 1   
    52    28    29 1   
    53    28    30 ar  
    54    30    53 1   
    55    31    32 1   
    56    31    33 1   
    57    31    34 1   
    58    32    54 1   
    59    32    55 1   
    60    32    56 1   
    61    33    57 1   
    62    33    58 1   
    63    33    59 1   
    64    34    60 1   
    65    34    61 1   
    66    34    62 1   
@<TRIPOS>SUBSTRUCTURE
     1 E3S         1 TEMP              0 ****  ****    0 ROOT
