@<TRIPOS>MOLECULE
E3T
   57    60     1     0     0
SMALL
No Charge or Current Charge


@<TRIPOS>ATOM
      1 CAA          0.9980    -3.4360    -3.2950 c3         1 E3T      -0.098100
      2 CAB         -6.4640    -3.1700     1.3940 c3         1 E3T      -0.195100
      3 CAC          1.0240     4.6820     1.4530 c3         1 E3T      -0.133400
      4 CAD         -2.5070     3.2810    -1.9690 c3         1 E3T      -0.140400
      5 CAG          7.2110    -1.1120     0.9960 cc         1 E3T      -0.199000
      6 CAH          6.8990     0.2200     1.0440 cd         1 E3T       0.150900
      7 CAI          6.0050    -1.8020     0.7670 cc         1 E3T      -0.097000
      8 CAJ         -3.9550    -3.3770    -0.2790 ca         1 E3T      -0.024000
      9 CAK         -2.8000    -3.4960    -1.0660 ca         1 E3T      -0.226000
     10 CAL          0.4790    -0.6470     0.1380 ca         1 E3T      -0.104000
     11 CAM          1.0630     1.7070     0.1750 ca         1 E3T      -0.153000
     12 CAN         -1.2440     1.0420    -0.1170 ca         1 E3T      -0.120000
     13 CAO         -3.1090    -1.2880     0.6300 ca         1 E3T      -0.009000
     14 CAP         -0.3670    -3.6990    -2.6390 c3         1 E3T       0.166600
     15 CAW          3.5770    -1.0900     0.4540 c          1 E3T       0.548600
     16 CAX          1.4590     0.3590     0.2460 ca         1 E3T      -0.024000
     17 CAY         -4.1250    -2.2680     0.5790 ca         1 E3T      -0.224600
     18 CAZ         -0.0960     4.6650     0.4490 cc         1 E3T       0.293300
     19 CBA         -0.8840    -0.3230    -0.0530 cp         1 E3T       0.006000
     20 CBB         -0.2860     2.0700    -0.0120 ca         1 E3T       0.027000
     21 CBC         -1.6360     3.9590    -0.9430 cd         1 E3T       0.205300
     22 CBD          5.0290    -0.8430     0.6890 cd         1 E3T       0.043500
     23 CBE         -1.7930    -2.5120    -1.0080 ca         1 E3T       0.196100
     24 CBF         -1.9310    -1.3890    -0.1500 cp         1 E3T      -0.097000
     25 CBG         -0.6840     3.4880    -0.0820 cc         1 E3T      -0.183000
     26 NAQ         -0.6660     5.7800     0.0270 nd         1 E3T      -0.368300
     27 OAE         -5.4930    -1.1370     2.1760 o          1 E3T      -0.531100
     28 OAF          3.1000    -2.2110     0.3020 o          1 E3T      -0.574100
     29 OAS         -0.6550    -2.5800    -1.7880 os         1 E3T      -0.337100
     30 OAT          5.5490     0.4270     0.8570 os         1 E3T      -0.244000
     31 OAU         -1.6790     5.3270    -0.8820 os         1 E3T      -0.071700
     32 H1           1.7780    -3.3330    -2.5320 hc         1 E3T       0.052033
     33 H2           1.2680    -4.2680    -3.9550 hc         1 E3T       0.052033
     34 H3           0.9680    -2.5180    -3.8930 hc         1 E3T       0.052033
     35 H4          -6.8020    -3.2900     0.3590 hc         1 E3T       0.059700
     36 H5          -6.0280    -4.1490     1.6220 hc         1 E3T       0.059700
     37 H6          -7.3000    -2.9380     2.0630 hc         1 E3T       0.059700
     38 H7           1.9970     4.6990     0.9510 hc         1 E3T       0.056367
     39 H8           0.9620     5.5710     2.0910 hc         1 E3T       0.056367
     40 H9           0.9820     3.8040     2.1080 hc         1 E3T       0.056367
     41 H10         -3.4300     2.9030    -1.5150 hc         1 E3T       0.065700
     42 H11         -2.7930     3.9810    -2.7630 hc         1 E3T       0.065700
     43 H12         -1.9850     2.4430    -2.4460 hc         1 E3T       0.065700
     44 H14          7.5240     1.0900     1.1990 h4         1 E3T       0.057100
     45 H15          5.8840    -2.8770     0.6730 ha         1 E3T       0.159000
     46 H16         -4.7110    -4.1550    -0.3530 ha         1 E3T       0.112000
     47 H17         -2.7080    -4.3580    -1.7210 ha         1 E3T       0.121000
     48 H18          0.7490    -1.6950     0.2120 ha         1 E3T       0.153000
     49 H19          1.8290     2.4740     0.2290 ha         1 E3T       0.113000
     50 H20         -2.2940     1.2920    -0.2240 ha         1 E3T       0.120000
     51 H21         -3.2190    -0.4320     1.2940 ha         1 E3T       0.139000
     52 H22         -1.1340    -3.8060    -3.4180 h1         1 E3T       0.035200
     53 H23         -0.3190    -4.6290    -2.0570 h1         1 E3T       0.035200
     54 CAV         -5.3620    -2.1080     1.4400 c          1 E3T       0.589700
     55 NAR          2.8450     0.0910     0.4260 ns         1 E3T      -0.136000
     56 H13          8.1930    -1.5600     1.1110 ha         1 E3T       0.149000
     57 H24          3.4080     0.9210     0.5590 hn         1 E3T       0.164000
@<TRIPOS>BOND
     1     1    14 1   
     2     1    32 1   
     3     1    33 1   
     4     1    34 1   
     5     2    35 1   
     6     2    36 1   
     7     2    37 1   
     8     2    54 1   
     9     3    18 1   
    10     3    38 1   
    11     3    39 1   
    12     3    40 1   
    13     4    21 1   
    14     4    41 1   
    15     4    42 1   
    16     4    43 1   
    17     5     6 2   
    18     5     7 1   
    19     5    56 1   
    20     6    30 1   
    21     6    44 1   
    22     7    22 2   
    23     7    45 1   
    24     8     9 ar  
    25     8    17 ar  
    26     8    46 1   
    27     9    23 ar  
    28     9    47 1   
    29    10    16 ar  
    30    10    19 ar  
    31    10    48 1   
    32    11    16 ar  
    33    11    20 ar  
    34    11    49 1   
    35    12    19 ar  
    36    12    20 ar  
    37    12    50 1   
    38    13    17 ar  
    39    13    24 ar  
    40    13    51 1   
    41    14    29 1   
    42    14    52 1   
    43    14    53 1   
    44    15    22 1   
    45    15    28 2   
    46    15    55 1   
    47    16    55 1   
    48    17    54 1   
    49    18    25 1   
    50    18    26 2   
    51    19    24 1   
    52    20    25 1   
    53    21    25 2   
    54    21    31 1   
    55    22    30 1   
    56    23    24 ar  
    57    23    29 1   
    58    26    31 1   
    59    27    54 2   
    60    55    57 1   
@<TRIPOS>SUBSTRUCTURE
     1 E3T         1 TEMP              0 ****  ****    0 ROOT
