@<TRIPOS>MOLECULE
E3T
   57    60     1     0     0
SMALL
abcg2


@<TRIPOS>ATOM
      1 CAA          0.9740    -3.4210    -3.2160 c3         1 E3T      -0.098100
      2 CAB         -6.2430    -3.1620     1.4860 c3         1 E3T      -0.195100
      3 CAC          0.6090     4.5560     1.7690 c3         1 E3T      -0.133400
      4 CAD         -2.2660     3.4390    -2.2920 c3         1 E3T      -0.140400
      5 CAG          7.1270    -1.2160     0.9180 cc         1 E3T      -0.199000
      6 CAH          6.8340     0.1080     0.9260 cd         1 E3T       0.150900
      7 CAI          5.8920    -1.8900     0.7160 cc         1 E3T      -0.097000
      8 CAJ         -3.8550    -3.3300    -0.2210 ca         1 E3T      -0.024000
      9 CAK         -2.7470    -3.4430    -1.0440 ca         1 E3T      -0.226000
     10 CAL          0.5020    -0.6400     0.1120 ca         1 E3T      -0.104000
     11 CAM          1.0650     1.7030     0.0740 ca         1 E3T      -0.153000
     12 CAN         -1.2190     1.0230    -0.1880 ca         1 E3T      -0.120000
     13 CAO         -2.9960    -1.2790     0.6620 ca         1 E3T      -0.009000
     14 CAP         -0.3850    -3.6320    -2.5920 c3         1 E3T       0.166600
     15 CAW          3.4960    -1.0370     0.4100 c          1 E3T       0.548600
     16 CAX          1.4580     0.3680     0.1920 ca         1 E3T      -0.024000
     17 CAY         -4.0020    -2.2490     0.6430 ca         1 E3T      -0.224600
     18 CAZ         -0.2940     4.5490     0.5880 cc         1 E3T       0.293300
     19 CBA         -0.8380    -0.3090    -0.0870 cp         1 E3T       0.006000
     20 CBB         -0.2690     2.0410    -0.1090 ca         1 E3T       0.027000
     21 CBC         -1.5160     3.9970    -1.1440 cd         1 E3T       0.205300
     22 CBD          4.9450    -0.9200     0.6170 cd         1 E3T       0.043500
     23 CBE         -1.7540    -2.4660    -1.0170 ca         1 E3T       0.196100
     24 CBF         -1.8730    -1.3660    -0.1410 cp         1 E3T      -0.097000
     25 CBG         -0.6710     3.4430    -0.2320 cc         1 E3T      -0.183000
     26 NAQ         -0.8750     5.6410     0.1870 nd         1 E3T      -0.368300
     27 OAE         -5.2710    -1.1490     2.2850 o          1 E3T      -0.531100
     28 OAF          2.9900    -2.1380     0.2740 o          1 E3T      -0.574100
     29 OAS         -0.6710    -2.4870    -1.7950 os         1 E3T      -0.337100
     30 OAT          5.5170     0.2980     0.7440 os         1 E3T      -0.244000
     31 OAU         -1.6340     5.3010    -0.8960 os         1 E3T      -0.071700
     32 H1           1.7420    -3.2970    -2.4530 hc         1 E3T       0.052033
     33 H2           1.2320    -4.2890    -3.8220 hc         1 E3T       0.052033
     34 H3           0.9830    -2.5450    -3.8650 hc         1 E3T       0.052033
     35 H4          -6.6780    -3.2280     0.4870 hc         1 E3T       0.059700
     36 H5          -5.8310    -4.1450     1.7200 hc         1 E3T       0.059700
     37 H6          -7.0340    -2.9350     2.1960 hc         1 E3T       0.059700
     38 H7           1.6440     4.3810     1.4740 hc         1 E3T       0.056367
     39 H8           0.5640     5.5130     2.2850 hc         1 E3T       0.056367
     40 H9           0.3330     3.7690     2.4710 hc         1 E3T       0.056367
     41 H10         -3.3000     3.2210    -2.0200 hc         1 E3T       0.065700
     42 H11         -2.2800     4.1350    -3.1300 hc         1 E3T       0.065700
     43 H12         -1.8070     2.5100    -2.6220 hc         1 E3T       0.065700
     44 H14          7.4390     0.9930     1.0460 h4         1 E3T       0.057100
     45 H15          5.7280    -2.9530     0.6560 ha         1 E3T       0.159000
     46 H16         -4.6050    -4.1080    -0.2720 ha         1 E3T       0.112000
     47 H17         -2.6770    -4.2910    -1.7100 ha         1 E3T       0.121000
     48 H18          0.7890    -1.6720     0.2150 ha         1 E3T       0.153000
     49 H19          1.8180     2.4810     0.1030 ha         1 E3T       0.113000
     50 H20         -2.2640     1.2720    -0.3240 ha         1 E3T       0.120000
     51 H21         -3.0840    -0.4390     1.3390 ha         1 E3T       0.139000
     52 H22         -1.1530    -3.7570    -3.3610 h1         1 E3T       0.035200
     53 H23         -0.3860    -4.5310    -1.9680 h1         1 E3T       0.035200
     54 CAV         -5.1750    -2.1020     1.5360 c          1 E3T       0.589700
     55 NAR          2.8220     0.1410     0.3910 ns         1 E3T      -0.136000
     56 H13          8.1020    -1.6570     1.0430 ha         1 E3T       0.149000
     57 H24          3.3720     0.9800     0.5050 hn         1 E3T       0.164000
@<TRIPOS>BOND
     1     1    14 1   
     2     1    32 1   
     3     1    33 1   
     4     1    34 1   
     5     2    35 1   
     6     2    36 1   
     7     2    37 1   
     8     2    54 1   
     9     3    18 1   
    10     3    38 1   
    11     3    39 1   
    12     3    40 1   
    13     4    21 1   
    14     4    41 1   
    15     4    42 1   
    16     4    43 1   
    17     5     6 2   
    18     5     7 1   
    19     5    56 1   
    20     6    30 1   
    21     6    44 1   
    22     7    22 2   
    23     7    45 1   
    24     8     9 ar  
    25     8    17 ar  
    26     8    46 1   
    27     9    23 ar  
    28     9    47 1   
    29    10    16 ar  
    30    10    19 ar  
    31    10    48 1   
    32    11    16 ar  
    33    11    20 ar  
    34    11    49 1   
    35    12    19 ar  
    36    12    20 ar  
    37    12    50 1   
    38    13    17 ar  
    39    13    24 ar  
    40    13    51 1   
    41    14    29 1   
    42    14    52 1   
    43    14    53 1   
    44    15    22 1   
    45    15    28 2   
    46    15    55 1   
    47    16    55 1   
    48    17    54 1   
    49    18    25 1   
    50    18    26 2   
    51    19    24 1   
    52    20    25 1   
    53    21    25 2   
    54    21    31 1   
    55    22    30 1   
    56    23    24 ar  
    57    23    29 1   
    58    26    31 1   
    59    27    54 2   
    60    55    57 1   
@<TRIPOS>SUBSTRUCTURE
     1 E3T         1 TEMP              0 ****  ****    0 ROOT
