@<TRIPOS>MOLECULE
E3U
   34    37     1     0     0
SMALL
abcg2


@<TRIPOS>ATOM
      1 C12          2.2970     1.1150     0.0490 cc         1 E3U       0.004800
      2 C11          1.4340    -0.0430     0.0240 cc         1 E3U      -0.052000
      3 C10         -0.9910     2.3590     0.7530 c6         1 E3U       0.146600
      4 C16          3.6420     1.0080     0.1110 cd         1 E3U      -0.300200
      5 C15          3.3480    -1.4720     0.2020 cd         1 E3U       0.020900
      6 C17          4.2510    -0.2960     0.1700 c          1 E3U       0.540500
      7 C14          2.0050    -1.3520     0.1430 cc         1 E3U      -0.194000
      8 C13          1.4700     2.3620     0.0740 c5         1 E3U      -0.073200
      9 C01         -1.1190    -0.3290    -0.0890 ca         1 E3U      -0.122800
     10 C02         -1.2900    -1.6890    -0.3810 ca         1 E3U      -0.034000
     11 C03         -2.2690     0.4320     0.2030 ca         1 E3U       0.108100
     12 C04         -2.5390    -2.2670    -0.3730 ca         1 E3U      -0.213000
     13 C05         -3.5340    -0.1480     0.2260 ca         1 E3U       0.071100
     14 C06         -3.6680    -1.5050    -0.0660 ca         1 E3U       0.156100
     15 C07          0.1360     0.3650    -0.0950 cf         1 E3U       0.027600
     16 C08          0.0520     1.8690    -0.2340 c5         1 E3U       0.165200
     17 O09         -2.2450     1.7460     0.4930 os         1 E3U      -0.352100
     18 O18          5.4650    -0.4990     0.2190 o          1 E3U      -0.550100
     19 O19          3.9560    -2.6560     0.3020 oh         1 E3U      -0.521100
     20 O20         -0.3510     2.1130    -1.5600 oh         1 E3U      -0.623000
     21 O21         -4.6490     0.5520     0.5190 oh         1 E3U      -0.513100
     22 O22         -4.9090    -2.0080    -0.0310 oh         1 E3U      -0.504100
     23 H1          -0.6740     2.1360     1.7780 h1         1 E3U       0.066700
     24 H2          -1.1540     3.4350     0.6730 h1         1 E3U       0.066700
     25 H3           4.2860     1.8780     0.1360 ha         1 E3U       0.206000
     26 H5           1.3830    -2.2350     0.1850 ha         1 E3U       0.204000
     27 H6           1.5320     2.8180     1.0660 hc         1 E3U       0.073200
     28 H7           1.8100     3.1130    -0.6410 hc         1 E3U       0.073200
     29 H8          -0.4410    -2.2950    -0.6580 ha         1 E3U       0.125000
     30 H9          -2.6510    -3.3170    -0.6130 ha         1 E3U       0.122000
     31 H11          4.9130    -2.4910     0.3200 ho         1 E3U       0.490000
     32 H12         -0.4720     3.0630    -1.6790 ho         1 E3U       0.447000
     33 H13         -4.4160     1.4540     0.7710 ho         1 E3U       0.474000
     34 H14         -4.8950    -2.9520    -0.2270 ho         1 E3U       0.466000
@<TRIPOS>BOND
     1     1     2 1   
     2     1     4 2   
     3     1     8 1   
     4     2     7 1   
     5     2    15 2   
     6     3    16 1   
     7     3    17 1   
     8     3    23 1   
     9     3    24 1   
    10     4     6 1   
    11     4    25 1   
    12     5     6 1   
    13     5     7 2   
    14     5    19 1   
    15     6    18 2   
    16     7    26 1   
    17     8    16 1   
    18     8    27 1   
    19     8    28 1   
    20     9    10 ar  
    21     9    11 ar  
    22     9    15 1   
    23    10    12 ar  
    24    10    29 1   
    25    11    13 ar  
    26    11    17 1   
    27    12    14 ar  
    28    12    30 1   
    29    13    14 ar  
    30    13    21 1   
    31    14    22 1   
    32    15    16 1   
    33    16    20 1   
    34    19    31 1   
    35    20    32 1   
    36    21    33 1   
    37    22    34 1   
@<TRIPOS>SUBSTRUCTURE
     1 E3U         1 TEMP              0 ****  ****    0 ROOT
