@<TRIPOS>MOLECULE
E3U
   34    37     1     0     0
SMALL
No Charge or Current Charge


@<TRIPOS>ATOM
      1 C12          2.3400     1.1160     0.0480 cc         1 E3U       0.004800
      2 C11          1.4430     0.0060     0.0630 cc         1 E3U      -0.052000
      3 C10         -0.9990     2.3930     0.7900 c6         1 E3U       0.146600
      4 C16          3.7090     1.0040     0.0750 cd         1 E3U      -0.300200
      5 C15          3.4040    -1.4740     0.1960 cd         1 E3U       0.020900
      6 C17          4.3540    -0.3130     0.1380 c          1 E3U       0.540500
      7 C14          2.0320    -1.3100     0.1690 cc         1 E3U      -0.194000
      8 C13          1.5280     2.3720     0.0470 c5         1 E3U      -0.073200
      9 C01         -1.1970    -0.3420    -0.0120 ca         1 E3U      -0.122800
     10 C02         -1.3430    -1.7120    -0.3140 ca         1 E3U      -0.034000
     11 C03         -2.3640     0.4290     0.2410 ca         1 E3U       0.108100
     12 C04         -2.6160    -2.3080    -0.3430 ca         1 E3U      -0.213000
     13 C05         -3.6420    -0.1680     0.2040 ca         1 E3U       0.071100
     14 C06         -3.7650    -1.5470    -0.0820 ca         1 E3U       0.156100
     15 C07          0.1160     0.3500     0.0250 cf         1 E3U       0.027600
     16 C08          0.0680     1.8840    -0.2160 c5         1 E3U       0.165200
     17 O09         -2.2890     1.7890     0.5210 os         1 E3U      -0.352100
     18 O18          5.5720    -0.4480     0.1560 o          1 E3U      -0.550100
     19 O19          3.9860    -2.7000     0.2880 oh         1 E3U      -0.521100
     20 O20         -0.3270     2.2030    -1.5600 oh         1 E3U      -0.623000
     21 O21         -4.7480     0.6100     0.4520 oh         1 E3U      -0.513100
     22 O22         -4.9910    -2.1530    -0.1220 oh         1 E3U      -0.504100
     23 H1          -0.6960     2.1250     1.8130 h1         1 E3U       0.066700
     24 H2          -1.0940     3.4870     0.7460 h1         1 E3U       0.066700
     25 H3           4.3730     1.8590     0.0650 ha         1 E3U       0.206000
     26 H5           1.4050    -2.1870     0.2510 ha         1 E3U       0.204000
     27 H6           1.6170     2.8800     1.0140 hc         1 E3U       0.073200
     28 H7           1.8790     3.0780    -0.7140 hc         1 E3U       0.073200
     29 H8          -0.4880    -2.3250    -0.5710 ha         1 E3U       0.125000
     30 H9          -2.7000    -3.3660    -0.5830 ha         1 E3U       0.122000
     31 H11          4.9610    -2.5520     0.2910 ho         1 E3U       0.490000
     32 H12         -0.5300     3.1620    -1.5850 ho         1 E3U       0.447000
     33 H13         -4.4240     1.5230     0.6170 ho         1 E3U       0.474000
     34 H14         -4.8620    -3.1010    -0.3380 ho         1 E3U       0.466000
@<TRIPOS>BOND
     1     1     2 1   
     2     1     4 2   
     3     1     8 1   
     4     2     7 1   
     5     2    15 2   
     6     3    16 1   
     7     3    17 1   
     8     3    23 1   
     9     3    24 1   
    10     4     6 1   
    11     4    25 1   
    12     5     6 1   
    13     5     7 2   
    14     5    19 1   
    15     6    18 2   
    16     7    26 1   
    17     8    16 1   
    18     8    27 1   
    19     8    28 1   
    20     9    10 ar  
    21     9    11 ar  
    22     9    15 1   
    23    10    12 ar  
    24    10    29 1   
    25    11    13 ar  
    26    11    17 1   
    27    12    14 ar  
    28    12    30 1   
    29    13    14 ar  
    30    13    21 1   
    31    14    22 1   
    32    15    16 1   
    33    16    20 1   
    34    19    31 1   
    35    20    32 1   
    36    21    33 1   
    37    22    34 1   
@<TRIPOS>SUBSTRUCTURE
     1 E3U         1 TEMP              0 ****  ****    0 ROOT
