@<TRIPOS>MOLECULE
E3V
   66    70     1     0     0
SMALL
No Charge or Current Charge


@<TRIPOS>ATOM
      1 C4           1.1840     4.6550    -0.0660 ca         1 E3V      -0.190000
      2 C5           0.8840     3.3630     0.3880 ca         1 E3V      -0.040000
      3 C6          -0.3600     2.8030     0.0400 ca         1 E3V      -0.174300
      4 C7          -0.7540     1.3830     0.5150 c6         1 E3V       0.097000
      5 C10         -2.7380     1.5790    -1.0040 c6         1 E3V       0.103000
      6 C21         -5.6690    -3.2350     0.9490 c3         1 E3V      -0.200400
      7 C22         -6.0340    -3.8900    -0.3950 c          1 E3V       0.719000
      8 C26          0.1830     0.3010    -0.1110 c          1 E3V       0.597100
      9 C30          3.6590    -0.5220     1.1010 ca         1 E3V      -0.168000
     10 C40          2.6290    -1.5430    -0.8600 ca         1 E3V      -0.175000
     11 C31          4.7910    -1.3080     0.8620 ca         1 E3V      -0.017800
     12 C37          4.8730    -2.1910    -0.1920 ca         1 E3V      -0.164300
     13 C29          2.5550    -0.6360     0.2310 ca         1 E3V       0.017000
     14 C38          3.7860    -2.3190    -1.0710 ca         1 E3V       0.219000
     15 C12         -1.2480     3.5940    -0.7230 ca         1 E3V       0.422300
     16 C3           0.2460     5.3560    -0.8350 ca         1 E3V       0.592300
     17 C32          6.0450    -1.3820     1.5970 ce         1 E3V      -0.173200
     18 C11         -2.6400     3.1060    -1.0810 c6         1 E3V      -0.149700
     19 C33          6.8940    -2.2740     1.0380 c2         1 E3V      -0.206200
     20 C18         -4.9830    -0.8680     1.9820 cy         1 E3V      -0.070900
     21 C25         -4.2880    -1.1500    -0.0210 cy         1 E3V      -0.070900
     22 C16         -4.5050     0.1410     0.8610 cy         1 E3V      -0.187700
     23 C19         -5.5270    -1.7100     0.7700 cy         1 E3V      -0.027700
     24 C34          6.2240    -2.9110    -0.2030 c5         1 E3V       0.032500
     25 C35          6.0730    -4.4410    -0.0290 c3         1 E3V      -0.069600
     26 C36          7.0350    -2.6130    -1.4860 c3         1 E3V      -0.069600
     27 C1          -0.3260     7.4090    -2.0520 c3         1 E3V       0.160900
     28 N13         -0.9570     4.8390    -1.1540 nb         1 E3V      -0.766000
     29 N9          -2.2170     1.0930     0.3070 n          1 E3V      -0.399800
     30 N28          1.4240     0.1810     0.5030 ns         1 E3V      -0.140000
     31 O15         -2.3560    -0.0110     2.2620 o          1 E3V      -0.618100
     32 O27         -0.1590    -0.3680    -1.0820 o          1 E3V      -0.554100
     33 O24         -7.2140    -3.9380    -0.7080 o          1 E3V      -0.741000
     34 O23         -5.1260    -4.2330    -1.1360 o          1 E3V      -0.741000
     35 O2           0.5820     6.6210    -1.2580 os         1 E3V      -0.464300
     36 F39          3.8360    -3.1760    -2.1150 f          1 E3V      -0.178000
     37 H1           2.1340     5.1200     0.1760 ha         1 E3V       0.134000
     38 H2           1.6050     2.8260     1.0000 ha         1 E3V       0.120000
     39 H3          -0.5380     1.3600     1.5920 h1         1 E3V       0.079700
     40 H4          -3.7740     1.2800    -1.1980 h1         1 E3V       0.071200
     41 H5          -2.1370     1.1410    -1.8140 h1         1 E3V       0.071200
     42 H6          -6.4800    -3.3810     1.6730 hc         1 E3V       0.024700
     43 H7          -4.7000    -3.6070     1.3040 hc         1 E3V       0.024700
     44 H8           3.6380     0.1630     1.9460 ha         1 E3V       0.116000
     45 H9           1.8090    -1.6620    -1.5580 ha         1 E3V       0.169000
     46 H10          6.2290    -0.7720     2.4830 ha         1 E3V       0.190000
     47 H11         -2.9160     3.4410    -2.0900 hc         1 E3V       0.070700
     48 H12         -3.3650     3.5550    -0.3900 hc         1 E3V       0.070700
     49 H13          7.8940    -2.5020     1.4120 ha         1 E3V       0.185000
     50 H14         -4.2460    -1.4210     2.5760 hc         1 E3V       0.055200
     51 H15         -5.7480    -0.4850     2.6660 hc         1 E3V       0.055200
     52 H16         -4.4390    -1.0260    -1.0990 hc         1 E3V       0.055200
     53 H17         -3.3670    -1.7300     0.1310 hc         1 E3V       0.055200
     54 H18         -5.1280     0.9820     0.5390 hc         1 E3V       0.056700
     55 H19         -6.4840    -1.3300     0.3880 hc         1 E3V       0.051700
     56 H20          5.4930    -4.6780     0.8710 hc         1 E3V       0.039367
     57 H21          5.5590    -4.8950    -0.8840 hc         1 E3V       0.039367
     58 H22          7.0510    -4.9270     0.0700 hc         1 E3V       0.039367
     59 H23          8.0410    -3.0460    -1.4290 hc         1 E3V       0.039367
     60 H24          6.5450    -3.0230    -2.3770 hc         1 E3V       0.039367
     61 H25          7.1470    -1.5320    -1.6360 hc         1 E3V       0.039367
     62 H26          0.1210     8.3820    -2.2900 h1         1 E3V       0.044367
     63 H27         -0.5600     6.9030    -2.9980 h1         1 E3V       0.044367
     64 H28         -1.2640     7.5900    -1.5110 h1         1 E3V       0.044367
     65 H29          1.5500     0.7880     1.3030 hn         1 E3V       0.152000
     66 C14         -2.9690     0.3430     1.2590 c          1 E3V       0.620100
@<TRIPOS>BOND
     1     1     2 ar  
     2     1    16 ar  
     3     1    37 1   
     4     2     3 ar  
     5     2    38 1   
     6     3     4 1   
     7     3    15 ar  
     8     4     8 1   
     9     4    29 1   
    10     4    39 1   
    11     5    18 1   
    12     5    29 1   
    13     5    40 1   
    14     5    41 1   
    15     6     7 1   
    16     6    23 1   
    17     6    42 1   
    18     6    43 1   
    19     7    33 1   
    20     7    34 1   
    21     8    30 1   
    22     8    32 2   
    23     9    11 ar  
    24     9    13 ar  
    25     9    44 1   
    26    10    13 ar  
    27    10    14 ar  
    28    10    45 1   
    29    11    12 ar  
    30    11    17 1   
    31    12    14 ar  
    32    12    24 1   
    33    13    30 1   
    34    14    36 1   
    35    15    18 1   
    36    15    28 ar  
    37    16    28 ar  
    38    16    35 1   
    39    17    19 2   
    40    17    46 1   
    41    18    47 1   
    42    18    48 1   
    43    19    24 1   
    44    19    49 1   
    45    20    22 1   
    46    20    23 1   
    47    20    50 1   
    48    20    51 1   
    49    21    22 1   
    50    21    23 1   
    51    21    52 1   
    52    21    53 1   
    53    22    54 1   
    54    22    66 1   
    55    23    55 1   
    56    24    25 1   
    57    24    26 1   
    58    25    56 1   
    59    25    57 1   
    60    25    58 1   
    61    26    59 1   
    62    26    60 1   
    63    26    61 1   
    64    27    35 1   
    65    27    62 1   
    66    27    63 1   
    67    27    64 1   
    68    29    66 1   
    69    30    65 1   
    70    31    66 2   
@<TRIPOS>SUBSTRUCTURE
     1 E3V         1 TEMP              0 ****  ****    0 ROOT
