@<TRIPOS>MOLECULE
E3V
   66    70     1     0     0
SMALL
abcg2


@<TRIPOS>ATOM
      1 C4           1.2530     4.8200    -0.7230 ca         1 E3V      -0.190000
      2 C5           0.9720     3.6120    -0.1340 ca         1 E3V      -0.040000
      3 C6          -0.3360     3.1140    -0.1260 ca         1 E3V      -0.174300
      4 C7          -0.6470     1.8060     0.5680 c6         1 E3V       0.097000
      5 C10         -2.8160     1.9280    -0.6500 c6         1 E3V       0.103000
      6 C21         -4.8630    -3.4580     0.5970 c3         1 E3V      -0.200400
      7 C22         -5.4360    -4.0110    -0.7190 c          1 E3V       0.719000
      8 C26          0.2190     0.6860    -0.0310 c          1 E3V       0.597100
      9 C30          3.3310    -0.6740     1.3910 ca         1 E3V      -0.168000
     10 C40          2.4710    -1.1850    -0.8140 ca         1 E3V      -0.175000
     11 C31          4.3760    -1.5500     1.1620 ca         1 E3V      -0.017800
     12 C37          4.4980    -2.2570    -0.0400 ca         1 E3V      -0.164300
     13 C29          2.3690    -0.4900     0.3920 ca         1 E3V       0.017000
     14 C38          3.5380    -2.0520    -0.9960 ca         1 E3V       0.219000
     15 C12         -1.3130     3.8940    -0.7190 ca         1 E3V       0.422300
     16 C3           0.1850     5.5200    -1.2980 ca         1 E3V       0.592300
     17 C32          5.5000    -1.9270     2.0140 ce         1 E3V      -0.173200
     18 C11         -2.7360     3.4380    -0.7230 c6         1 E3V      -0.149700
     19 C33          6.2630    -2.8140     1.3650 c2         1 E3V      -0.206200
     20 C18         -4.2490    -1.3220     1.9810 cy         1 E3V      -0.070900
     21 C25         -4.0980    -1.0600    -0.1480 cy         1 E3V      -0.070900
     22 C16         -3.8190    -0.1550     1.0810 cy         1 E3V      -0.187700
     23 C19         -4.9500    -1.9600     0.7630 cy         1 E3V      -0.027700
     24 C34          5.7270    -3.1320    -0.0100 c5         1 E3V       0.032500
     25 C35          5.3800    -4.6220    -0.1230 c3         1 E3V      -0.069600
     26 C36          6.7450    -2.7390    -1.0880 c3         1 E3V      -0.069600
     27 C1          -0.6070     7.4120    -2.4720 c3         1 E3V       0.160900
     28 N13         -1.0480     5.0720    -1.2930 nb         1 E3V      -0.766000
     29 N9          -2.0420     1.4310     0.4740 n          1 E3V      -0.399800
     30 N28          1.3440     0.4190     0.6730 ns         1 E3V      -0.140000
     31 O15         -1.6240    -0.1350     2.0200 o          1 E3V      -0.618100
     32 O27         -0.0990     0.1410    -1.0680 o          1 E3V      -0.554100
     33 O24         -5.3880    -5.2520    -0.8590 o          1 E3V      -0.741000
     34 O23         -5.8960    -3.1940    -1.5400 o          1 E3V      -0.741000
     35 O2           0.4610     6.6930    -1.8710 os         1 E3V      -0.464300
     36 F39          3.6130    -2.7090    -2.1670 f          1 E3V      -0.178000
     37 H1           2.2570     5.2200    -0.7410 ha         1 E3V       0.134000
     38 H2           1.7800     3.0570     0.3280 ha         1 E3V       0.120000
     39 H3          -0.4000     1.9290     1.6270 h1         1 E3V       0.079700
     40 H4          -3.8540     1.6330    -0.5340 h1         1 E3V       0.071200
     41 H5          -2.4580     1.4840    -1.5830 h1         1 E3V       0.071200
     42 H6          -5.3700    -3.9520     1.4350 hc         1 E3V       0.024700
     43 H7          -3.8140    -3.7720     0.6780 hc         1 E3V       0.024700
     44 H8           3.2560    -0.1360     2.3290 ha         1 E3V       0.116000
     45 H9           1.7470    -1.0630    -1.6030 ha         1 E3V       0.169000
     46 H10          5.6700    -1.5390     3.0090 ha         1 E3V       0.190000
     47 H11         -3.2340     3.7920    -1.6270 hc         1 E3V       0.070700
     48 H12         -3.2650     3.8800     0.1270 hc         1 E3V       0.070700
     49 H13          7.1670    -3.2720     1.7440 ha         1 E3V       0.185000
     50 H14         -3.3930    -1.9160     2.3070 hc         1 E3V       0.055200
     51 H15         -4.8540    -1.0790     2.8540 hc         1 E3V       0.055200
     52 H16         -4.5800    -0.6020    -1.0090 hc         1 E3V       0.055200
     53 H17         -3.1900    -1.5670    -0.4860 hc         1 E3V       0.055200
     54 H18         -4.5510     0.6550     1.1310 hc         1 E3V       0.056700
     55 H19         -5.9920    -1.6320     0.7210 hc         1 E3V       0.051700
     56 H20          4.6390    -4.9150     0.6210 hc         1 E3V       0.039367
     57 H21          4.9830    -4.8530    -1.1120 hc         1 E3V       0.039367
     58 H22          6.2720    -5.2320     0.0260 hc         1 E3V       0.039367
     59 H23          7.6710    -3.3020    -0.9580 hc         1 E3V       0.039367
     60 H24          6.3610    -2.9580    -2.0850 hc         1 E3V       0.039367
     61 H25          6.9850    -1.6770    -1.0380 hc         1 E3V       0.039367
     62 H26         -0.1650     8.3200    -2.8730 h1         1 E3V       0.044367
     63 H27         -1.0690     6.8470    -3.2820 h1         1 E3V       0.044367
     64 H28         -1.3780     7.6760    -1.7470 h1         1 E3V       0.044367
     65 H29          1.4210     0.8740     1.5700 hn         1 E3V       0.152000
     66 C14         -2.4200     0.3740     1.2420 c          1 E3V       0.620100
@<TRIPOS>BOND
     1     1     2 ar  
     2     1    16 ar  
     3     1    37 1   
     4     2     3 ar  
     5     2    38 1   
     6     3     4 1   
     7     3    15 ar  
     8     4     8 1   
     9     4    29 1   
    10     4    39 1   
    11     5    18 1   
    12     5    29 1   
    13     5    40 1   
    14     5    41 1   
    15     6     7 1   
    16     6    23 1   
    17     6    42 1   
    18     6    43 1   
    19     7    33 1   
    20     7    34 1   
    21     8    30 1   
    22     8    32 2   
    23     9    11 ar  
    24     9    13 ar  
    25     9    44 1   
    26    10    13 ar  
    27    10    14 ar  
    28    10    45 1   
    29    11    12 ar  
    30    11    17 1   
    31    12    14 ar  
    32    12    24 1   
    33    13    30 1   
    34    14    36 1   
    35    15    18 1   
    36    15    28 ar  
    37    16    28 ar  
    38    16    35 1   
    39    17    19 2   
    40    17    46 1   
    41    18    47 1   
    42    18    48 1   
    43    19    24 1   
    44    19    49 1   
    45    20    22 1   
    46    20    23 1   
    47    20    50 1   
    48    20    51 1   
    49    21    22 1   
    50    21    23 1   
    51    21    52 1   
    52    21    53 1   
    53    22    54 1   
    54    22    66 1   
    55    23    55 1   
    56    24    25 1   
    57    24    26 1   
    58    25    56 1   
    59    25    57 1   
    60    25    58 1   
    61    26    59 1   
    62    26    60 1   
    63    26    61 1   
    64    27    35 1   
    65    27    62 1   
    66    27    63 1   
    67    27    64 1   
    68    29    66 1   
    69    30    65 1   
    70    31    66 2   
@<TRIPOS>SUBSTRUCTURE
     1 E3V         1 TEMP              0 ****  ****    0 ROOT
