@<TRIPOS>MOLECULE
E3W
   67    71     1     0     0
SMALL
abcg2


@<TRIPOS>ATOM
      1 C1           9.5630   -10.6520    21.6850 cc         1 E3W       0.783400
      2 C2          11.3960    -9.9930    22.4640 cd         1 E3W       0.843900
      3 C3          15.2840    -7.5570    24.8610 ca         1 E3W      -0.323500
      4 N4          12.7350   -10.0470    22.7130 nu         1 E3W      -0.923900
      5 O5           4.2020    -0.2080    28.0320 o          1 E3W      -0.711500
      6 N6          10.5890    -9.0450    22.8520 nc         1 E3W      -0.612800
      7 C8          13.9360    -7.2340    24.7870 ca         1 E3W       0.028500
      8 C11          7.0340    -4.6010    24.7950 ca         1 E3W      -0.089000
      9 C12          7.8920    -5.6130    24.4100 ca         1 E3W      -0.141000
     10 C13          7.4730    -6.6050    23.5230 ca         1 E3W      -0.057000
     11 C14          6.1720    -6.5520    23.0250 ca         1 E3W      -0.141000
     12 C23          1.3690     0.2090    25.1610 c3         1 E3W       0.209900
     13 C26          1.7340     1.6040    23.1100 ca         1 E3W      -0.092000
     14 C27          2.2010     1.1690    24.3460 ca         1 E3W      -0.116300
     15 C10          5.7240    -4.5380    24.3170 cp         1 E3W       0.007000
     16 C15          5.3230    -5.5330    23.4260 ca         1 E3W      -0.089000
     17 C16          3.0140    -1.4700    25.5720 ca         1 E3W       0.154100
     18 C17          3.9630    -1.9680    26.4740 ca         1 E3W      -0.147600
     19 C18          4.8110    -2.9780    26.0440 ca         1 E3W      -0.052000
     20 C19          4.7990    -3.4710    24.7380 cp         1 E3W      -0.113000
     21 C20          3.8690    -2.9290    23.8550 ca         1 E3W      -0.088000
     22 C21          2.9800    -1.9470    24.2640 ca         1 E3W      -0.214000
     23 C24          3.6630     3.0170    22.8460 ca         1 E3W      -0.120000
     24 C25          2.4560     2.5270    22.3650 ca         1 E3W      -0.122500
     25 C28          3.4120     1.6630    24.8250 ca         1 E3W      -0.092000
     26 C29          4.1390     2.5780    24.0750 ca         1 E3W      -0.122500
     27 C4          15.7660    -8.6910    24.2190 ca         1 E3W       0.028500
     28 C5          14.8990    -9.4930    23.5090 ca         1 E3W      -0.193500
     29 C6          13.5330    -9.1850    23.4300 ca         1 E3W       0.387000
     30 C7          13.0610    -8.0380    24.0800 ca         1 E3W      -0.193500
     31 C9           8.2120    -8.7290    22.5100 c          1 E3W       0.646900
     32 N1           9.3840    -9.4690    22.3480 n          1 E3W      -0.113500
     33 N2          10.8300   -10.9980    21.7520 nd         1 E3W      -0.838000
     34 N3           8.6080   -11.3230    21.0490 nv         1 E3W      -1.070900
     35 N5          16.6560    -5.3040    24.6880 n8         1 E3W      -0.995100
     36 N7           8.4150    -7.5810    23.1820 ns         1 E3W      -0.112000
     37 O1          15.6760    -5.9020    26.8860 o          1 E3W      -0.549000
     38 O2          17.5800    -7.3000    26.0680 o          1 E3W      -0.549000
     39 O3           7.1590    -9.1410    22.0640 o          1 E3W      -0.621100
     40 O4           4.1760    -2.3070    28.7920 o          1 E3W      -0.711500
     41 H1          13.1890   -10.8530    22.3110 hn         1 E3W       0.515000
     42 H3          13.5500    -6.3540    25.2840 ha         1 E3W       0.135000
     43 H4           7.4030    -3.8390    25.4710 ha         1 E3W       0.123000
     44 H5           8.9040    -5.6290    24.7980 ha         1 E3W       0.118500
     45 H6           5.8060    -7.2950    22.3360 ha         1 E3W       0.118500
     46 H7           0.6780     0.7680    25.7950 h1         1 E3W       0.045700
     47 H8           0.7520    -0.4120    24.5020 h1         1 E3W       0.045700
     48 H10          4.3110    -5.5330    23.0410 ha         1 E3W       0.123000
     49 H11          5.5080    -3.3980    26.7600 ha         1 E3W       0.124000
     50 H12          3.8360    -3.2630    22.8250 ha         1 E3W       0.088000
     51 H13          2.2680    -1.5660    23.5450 ha         1 E3W       0.099000
     52 H14          4.2310     3.7310    22.2650 ha         1 E3W       0.097000
     53 H15          2.0790     2.8550    21.4050 ha         1 E3W       0.103500
     54 H16          3.8000     1.3280    25.7800 ha         1 E3W       0.136000
     55 H17          5.0820     2.9500    24.4540 ha         1 E3W       0.103500
     56 H18         16.8130    -8.9570    24.2670 ha         1 E3W       0.135000
     57 H19         15.2800   -10.3770    23.0120 ha         1 E3W       0.131500
     58 H20         12.0170    -7.7700    24.0420 ha         1 E3W       0.131500
     59 H21          8.8270   -12.2340    20.6840 hn         1 E3W       0.522000
     60 H22          7.6430   -11.0550    21.1380 hn         1 E3W       0.522000
     61 H23         17.0900    -4.5020    25.1360 hn         1 E3W       0.467000
     62 H24         17.2210    -5.6080    23.8990 hn         1 E3W       0.467000
     63 H25          9.3610    -7.4230    23.5070 hn         1 E3W       0.185000
     64 C22          4.1130    -1.4420    27.9000 c          1 E3W       0.726600
     65 S1          16.3810    -6.5250    25.7740 sy         1 E3W       1.129600
     66 O6           2.1310    -0.5670    26.0560 os         1 E3W      -0.303100
     67 H9           0.8000     1.2140    22.7220 ha         1 E3W       0.136000
@<TRIPOS>BOND
     1     1    32 1   
     2     1    33 2   
     3     1    34 1   
     4     2     4 1   
     5     2     6 2   
     6     2    33 1   
     7     3     7 ar  
     8     3    27 ar  
     9     3    65 1   
    10     4    29 1   
    11     4    41 1   
    12     5    64 1   
    13     6    32 1   
    14     7    30 ar  
    15     7    42 1   
    16     8     9 ar  
    17     8    15 ar  
    18     8    43 1   
    19     9    10 ar  
    20     9    44 1   
    21    10    11 ar  
    22    10    36 1   
    23    11    16 ar  
    24    11    45 1   
    25    12    14 1   
    26    12    46 1   
    27    12    47 1   
    28    12    66 1   
    29    13    14 ar  
    30    13    24 ar  
    31    13    67 1   
    32    14    25 ar  
    33    15    16 ar  
    34    15    20 1   
    35    16    48 1   
    36    17    18 ar  
    37    17    22 ar  
    38    17    66 1   
    39    18    19 ar  
    40    18    64 1   
    41    19    20 ar  
    42    19    49 1   
    43    20    21 ar  
    44    21    22 ar  
    45    21    50 1   
    46    22    51 1   
    47    23    24 ar  
    48    23    26 ar  
    49    23    52 1   
    50    24    53 1   
    51    25    26 ar  
    52    25    54 1   
    53    26    55 1   
    54    27    28 ar  
    55    27    56 1   
    56    28    29 ar  
    57    28    57 1   
    58    29    30 ar  
    59    30    58 1   
    60    31    32 1   
    61    31    36 1   
    62    31    39 2   
    63    34    59 1   
    64    34    60 1   
    65    35    61 1   
    66    35    62 1   
    67    35    65 1   
    68    36    63 1   
    69    37    65 2   
    70    38    65 2   
    71    40    64 1   
@<TRIPOS>SUBSTRUCTURE
     1 E3W         1 TEMP              0 ****  ****    0 ROOT
