@<TRIPOS>MOLECULE
E3W
   67    71     1     0     0
SMALL
No Charge or Current Charge


@<TRIPOS>ATOM
      1 C1           9.8150   -10.2490    21.4830 cc         1 E3W       0.783400
      2 C2          11.5720    -9.8010    22.3770 cd         1 E3W       0.843900
      3 C3          15.8140    -8.0660    24.9850 ca         1 E3W      -0.323500
      4 N4          12.8520    -9.9720    22.6710 nu         1 E3W      -0.923900
      5 O5           4.2220     0.0120    28.1030 o          1 E3W      -0.711500
      6 N6          10.7750    -8.8480    22.7960 nc         1 E3W      -0.612800
      7 C8          14.5160    -7.5240    24.9500 ca         1 E3W       0.028500
      8 C11          6.9400    -4.3240    24.8090 ca         1 E3W      -0.089000
      9 C12          7.8420    -5.3130    24.3790 ca         1 E3W      -0.141000
     10 C13          7.4210    -6.3480    23.5240 ca         1 E3W      -0.057000
     11 C14          6.0750    -6.3750    23.1040 ca         1 E3W      -0.141000
     12 C23          0.9580     0.3540    25.3460 c3         1 E3W       0.209900
     13 C26          1.3520     1.2490    22.9910 ca         1 E3W      -0.092000
     14 C27          1.6970     1.2590    24.3580 ca         1 E3W      -0.116300
     15 C10          5.5860    -4.3380    24.3960 cp         1 E3W       0.007000
     16 C15          5.1750    -5.3840    23.5340 ca         1 E3W      -0.089000
     17 C16          2.7930    -1.2790    25.7280 ca         1 E3W       0.154100
     18 C17          3.8110    -1.7320    26.5900 ca         1 E3W      -0.147600
     19 C18          4.7100    -2.7260    26.1520 ca         1 E3W      -0.052000
     20 C19          4.6230    -3.2850    24.8530 cp         1 E3W      -0.113000
     21 C20          3.5930    -2.8160    24.0030 ca         1 E3W      -0.088000
     22 C21          2.6880    -1.8320    24.4320 ca         1 E3W      -0.214000
     23 C24          3.0500     2.9340    22.5340 ca         1 E3W      -0.120000
     24 C25          2.0280     2.0830    22.0820 ca         1 E3W      -0.122500
     25 C28          2.7220     2.1190    24.8040 ca         1 E3W      -0.092000
     26 C29          3.3960     2.9520    23.8950 ca         1 E3W      -0.122500
     27 C4          16.1040    -9.2320    24.2510 ca         1 E3W       0.028500
     28 C5          15.0950    -9.8450    23.4890 ca         1 E3W      -0.193500
     29 C6          13.7990    -9.3110    23.4480 ca         1 E3W       0.387000
     30 C7          13.5160    -8.1460    24.1840 ca         1 E3W      -0.193500
     31 C9           8.3240    -8.4460    22.3290 c          1 E3W       0.646900
     32 N1           9.5610    -9.1150    22.2160 n          1 E3W      -0.113500
     33 N2          11.0210   -10.7230    21.5470 nd         1 E3W      -0.838000
     34 N3           8.9470   -10.8910    20.7090 nv         1 E3W      -1.070900
     35 N5          17.6590    -6.1610    24.9120 n8         1 E3W      -0.995100
     36 N7           8.3910    -7.3130    23.1300 ns         1 E3W      -0.112000
     37 O1          16.4910    -6.5010    27.0530 o          1 E3W      -0.549000
     38 O2          18.2120    -8.1860    26.1550 o          1 E3W      -0.549000
     39 O3           7.3010    -8.8460    21.7780 o          1 E3W      -0.621100
     40 O4           3.8850    -1.9560    28.9140 o          1 E3W      -0.711500
     41 H1          13.1810   -10.7990    22.1910 hn         1 E3W       0.515000
     42 H3          14.2760    -6.6220    25.5120 ha         1 E3W       0.135000
     43 H4           7.3010    -3.5310    25.4580 ha         1 E3W       0.123000
     44 H5           8.8770    -5.2690    24.7130 ha         1 E3W       0.118500
     45 H6           5.7020    -7.1530    22.4460 ha         1 E3W       0.118500
     46 H7           0.2980     0.9800    25.9600 h1         1 E3W       0.045700
     47 H8           0.3200    -0.3630    24.8150 h1         1 E3W       0.045700
     48 H10          4.1400    -5.4380    23.2050 ha         1 E3W       0.123000
     49 H11          5.4790    -3.0740    26.8380 ha         1 E3W       0.124000
     50 H12          3.4970    -3.2120    22.9950 ha         1 E3W       0.088000
     51 H13          1.9110    -1.5150    23.7450 ha         1 E3W       0.099000
     52 H14          3.5720     3.5780    21.8300 ha         1 E3W       0.097000
     53 H15          1.7580     2.0690    21.0290 ha         1 E3W       0.103500
     54 H16          2.9980     2.1400    25.8570 ha         1 E3W       0.136000
     55 H17          4.1870     3.6110    24.2460 ha         1 E3W       0.103500
     56 H18         17.1020    -9.6690    24.2660 ha         1 E3W       0.135000
     57 H19         15.3310   -10.7440    22.9270 ha         1 E3W       0.131500
     58 H20         12.5270    -7.7060    24.1760 ha         1 E3W       0.131500
     59 H21          9.1700   -11.8650    20.5530 hn         1 E3W       0.522000
     60 H22          7.9700   -10.6620    20.8700 hn         1 E3W       0.522000
     61 H23         18.6560    -6.3570    24.9460 hn         1 E3W       0.467000
     62 H24         17.3640    -6.5400    24.0160 hn         1 E3W       0.467000
     63 H25          9.3160    -7.1480    23.5030 hn         1 E3W       0.185000
     64 C22          3.9490    -1.1730    27.9760 c          1 E3W       0.726600
     65 S1          17.0870    -7.2740    25.9630 sy         1 E3W       1.129600
     66 O6           1.9020    -0.3300    26.1940 os         1 E3W      -0.303100
     67 H9           0.5600     0.5950    22.6300 ha         1 E3W       0.136000
@<TRIPOS>BOND
     1     1    32 1   
     2     1    33 2   
     3     1    34 1   
     4     2     4 1   
     5     2     6 2   
     6     2    33 1   
     7     3     7 ar  
     8     3    27 ar  
     9     3    65 1   
    10     4    29 1   
    11     4    41 1   
    12     5    64 1   
    13     6    32 1   
    14     7    30 ar  
    15     7    42 1   
    16     8     9 ar  
    17     8    15 ar  
    18     8    43 1   
    19     9    10 ar  
    20     9    44 1   
    21    10    11 ar  
    22    10    36 1   
    23    11    16 ar  
    24    11    45 1   
    25    12    14 1   
    26    12    46 1   
    27    12    47 1   
    28    12    66 1   
    29    13    14 ar  
    30    13    24 ar  
    31    13    67 1   
    32    14    25 ar  
    33    15    16 ar  
    34    15    20 1   
    35    16    48 1   
    36    17    18 ar  
    37    17    22 ar  
    38    17    66 1   
    39    18    19 ar  
    40    18    64 1   
    41    19    20 ar  
    42    19    49 1   
    43    20    21 ar  
    44    21    22 ar  
    45    21    50 1   
    46    22    51 1   
    47    23    24 ar  
    48    23    26 ar  
    49    23    52 1   
    50    24    53 1   
    51    25    26 ar  
    52    25    54 1   
    53    26    55 1   
    54    27    28 ar  
    55    27    56 1   
    56    28    29 ar  
    57    28    57 1   
    58    29    30 ar  
    59    30    58 1   
    60    31    32 1   
    61    31    36 1   
    62    31    39 2   
    63    34    59 1   
    64    34    60 1   
    65    35    61 1   
    66    35    62 1   
    67    35    65 1   
    68    36    63 1   
    69    37    65 2   
    70    38    65 2   
    71    40    64 1   
@<TRIPOS>SUBSTRUCTURE
     1 E3W         1 TEMP              0 ****  ****    0 ROOT
