@<TRIPOS>MOLECULE
E3X
   29    30     1     0     0
SMALL
bcc


@<TRIPOS>ATOM
      1 C4           3.7350     5.7460     1.1700 ca         1 E3X      -0.076800
      2 C5           1.8480     6.6760    -0.2930 c6         1 E3X      -0.036200
      3 C6           2.4620     4.7050    -2.3370 c6         1 E3X       0.199000
      4 C11          4.0910     6.6840     3.3900 ca         1 E3X      -0.195000
      5 C7           4.9000     4.9910     1.3680 ca         1 E3X      -0.082500
      6 C8           3.3640     6.5990     2.2110 ca         1 E3X      -0.082500
      7 C9           0.9490     6.3080    -1.4610 c6         1 E3X       0.165800
      8 C10          5.2310     5.9100     3.5660 ca         1 E3X       0.140100
      9 C12          5.6320     5.0600     2.5360 ca         1 E3X      -0.195000
     10 N3           1.7360     5.9230    -2.6130 n3         1 E3X      -0.710600
     11 C1           2.9480     5.6690    -0.0810 ce         1 E3X      -0.042400
     12 C2           3.1740     4.7480    -1.0240 c2         1 E3X      -0.168200
     13 O14          5.9800     5.9470     4.6860 oh         1 E3X      -0.493100
     14 H1           2.2770     7.6720    -0.4410 hc         1 E3X       0.052200
     15 H2           1.2220     6.7450     0.6010 hc         1 E3X       0.052200
     16 H3           1.8000     3.8170    -2.3540 h1         1 E3X       0.038700
     17 H4           3.1970     4.5390    -3.1320 h1         1 E3X       0.038700
     18 H5           3.7610     7.3610     4.1700 ha         1 E3X       0.138000
     19 H6           5.2630     4.3340     0.5880 ha         1 E3X       0.130500
     20 H7           2.4870     7.2250     2.1230 ha         1 E3X       0.130500
     21 H8           0.3300     7.1690    -1.7240 h1         1 E3X       0.032200
     22 H9           0.2560     5.5030    -1.1570 h1         1 E3X       0.032200
     23 H10          6.5260     4.4590     2.6510 ha         1 E3X       0.138000
     24 H12          0.4420     6.7430    -4.0320 h1         1 E3X       0.030700
     25 H13          1.5660     5.5390    -4.6580 h1         1 E3X       0.030700
     26 H14          0.1540     5.0210    -3.7250 h1         1 E3X       0.030700
     27 H15          3.9170     3.9730    -0.8820 ha         1 E3X       0.124000
     28 H16          5.6020     6.5670     5.3190 ho         1 E3X       0.425000
     29 C15          0.9330     5.7950    -3.8070 c3         1 E3X       0.153100
@<TRIPOS>BOND
     1     1     5 ar  
     2     1     6 ar  
     3     1    11 1   
     4     2     7 1   
     5     2    11 1   
     6     2    14 1   
     7     2    15 1   
     8     3    10 1   
     9     3    12 1   
    10     3    16 1   
    11     3    17 1   
    12     4     6 ar  
    13     4     8 ar  
    14     4    18 1   
    15     5     9 ar  
    16     5    19 1   
    17     6    20 1   
    18     7    10 1   
    19     7    21 1   
    20     7    22 1   
    21     8     9 ar  
    22     8    13 1   
    23     9    23 1   
    24    10    29 1   
    25    11    12 2   
    26    12    27 1   
    27    13    28 1   
    28    24    29 1   
    29    25    29 1   
    30    26    29 1   
@<TRIPOS>SUBSTRUCTURE
     1 E3X         1 TEMP              0 ****  ****    0 ROOT
