@<TRIPOS>MOLECULE
E3X
   29    30     1     0     0
SMALL
No Charge or Current Charge


@<TRIPOS>ATOM
      1 C4           3.7680     5.7870     1.1870 ca         1 E3X      -0.076800
      2 C5           1.6540     6.4600    -0.1620 c6         1 E3X      -0.036200
      3 C6           2.7280     5.0230    -2.5160 c6         1 E3X       0.199000
      4 C11          4.4780     6.9760     3.2040 ca         1 E3X      -0.177000
      5 C7           4.4870     4.6540     1.6250 ca         1 E3X      -0.064500
      6 C8           3.7690     6.9480     1.9900 ca         1 E3X      -0.064500
      7 C9           0.8020     6.0010    -1.3690 c6         1 E3X       0.165800
      8 C10          5.1910     5.8440     3.6270 ca         1 E3X       0.140100
      9 C12          5.1950     4.6850     2.8390 ca         1 E3X      -0.177000
     10 N3           1.6110     5.9960    -2.6150 n3         1 E3X      -0.710600
     11 C1           3.0140     5.7500    -0.1030 ce         1 E3X      -0.042400
     12 C2           3.4900     5.1190    -1.2030 c2         1 E3X      -0.218200
     13 O14          5.8800     5.8630     4.8030 oh         1 E3X      -0.532100
     14 H1           1.8180     7.5430    -0.2390 hc         1 E3X       0.052200
     15 H2           1.0950     6.2910     0.7670 hc         1 E3X       0.052200
     16 H3           2.3410     3.9970    -2.6100 h1         1 E3X       0.038700
     17 H4           3.4310     5.1720    -3.3490 h1         1 E3X       0.038700
     18 H5           4.4700     7.8800     3.8080 ha         1 E3X       0.120000
     19 H6           4.4900     3.7440     1.0300 ha         1 E3X       0.112500
     20 H7           3.2290     7.8360     1.6730 ha         1 E3X       0.112500
     21 H8          -0.0610     6.6760    -1.4690 h1         1 E3X       0.032200
     22 H9           0.4060     4.9940    -1.1710 h1         1 E3X       0.032200
     23 H10          5.7440     3.8060     3.1690 ha         1 E3X       0.120000
     24 H12          0.0180     6.5660    -3.9100 h1         1 E3X       0.030700
     25 H13          1.4190     5.8460    -4.7310 h1         1 E3X       0.030700
     26 H14          0.3000     4.8110    -3.8110 h1         1 E3X       0.030700
     27 H15          4.4590     4.6220    -1.1900 ha         1 E3X       0.174000
     28 H16          5.7650     6.7460     5.2150 ho         1 E3X       0.464000
     29 C15          0.7940     5.7920    -3.8300 c3         1 E3X       0.153100
@<TRIPOS>BOND
     1     1     5 ar  
     2     1     6 ar  
     3     1    11 1   
     4     2     7 1   
     5     2    11 1   
     6     2    14 1   
     7     2    15 1   
     8     3    10 1   
     9     3    12 1   
    10     3    16 1   
    11     3    17 1   
    12     4     6 ar  
    13     4     8 ar  
    14     4    18 1   
    15     5     9 ar  
    16     5    19 1   
    17     6    20 1   
    18     7    10 1   
    19     7    21 1   
    20     7    22 1   
    21     8     9 ar  
    22     8    13 1   
    23     9    23 1   
    24    10    29 1   
    25    11    12 2   
    26    12    27 1   
    27    13    28 1   
    28    24    29 1   
    29    25    29 1   
    30    26    29 1   
@<TRIPOS>SUBSTRUCTURE
     1 E3X         1 TEMP              0 ****  ****    0 ROOT
