@<TRIPOS>MOLECULE
E3Y
   38    41     1     0     0
SMALL
No Charge or Current Charge


@<TRIPOS>ATOM
      1 C1           3.0270     1.3320     0.0370 ca         1 E3Y       0.268000
      2 C2           2.9630    -0.9480     0.4280 ca         1 E3Y       0.100000
      3 C3           2.8430    -3.2550     0.7830 ca         1 E3Y       0.124900
      4 C6           1.6750    -0.9640    -0.1780 ca         1 E3Y      -0.222000
      5 C7           1.1390     0.2590    -0.6460 ca         1 E3Y       0.419900
      6 C8          -1.3440     0.1770    -0.5100 ca         1 E3Y       0.252000
      7 C9          -1.3250     0.0450     0.8990 ca         1 E3Y      -0.063000
      8 C11         -3.7470    -0.2220     0.9590 ca         1 E3Y       0.135100
      9 C13         -3.7830    -0.0820    -0.4350 ca         1 E3Y      -0.136000
     10 C14         -2.5990     0.1230    -1.1710 ca         1 E3Y      -0.063300
     11 C16         -1.4900     1.0910    -3.2230 c6         1 E3Y      -0.104400
     12 C17         -0.1630     0.4820    -2.7290 c6         1 E3Y       0.224800
     13 C10         -2.5100    -0.1540     1.6290 ca         1 E3Y      -0.179000
     14 C12         -5.0130    -0.5720     3.0490 c3         1 E3Y       0.148900
     15 C15         -2.6860     0.2860    -2.6870 c6         1 E3Y      -0.028100
     16 C4           1.5760    -3.3500     0.1900 ca         1 E3Y      -0.192000
     17 C5           0.9770    -2.1850    -0.3030 ca         1 E3Y      -0.023000
     18 N1           3.6210     0.2270     0.5240 nb         1 E3Y      -0.163000
     19 N2           3.5140    -2.0910     0.8960 nb         1 E3Y      -0.117000
     20 N3          -0.1320     0.3610    -1.2450 nh         1 E3Y      -0.795100
     21 N4           1.8200     1.4100    -0.5450 nb         1 E3Y      -0.244000
     22 Cl1          3.9250     2.8350     0.1810 cl         1 E3Y      -0.126000
     23 H1           3.3400    -4.1390     1.1780 h4         1 E3Y       0.027100
     24 H2          -0.3860     0.0960     1.4420 ha         1 E3Y       0.121000
     25 H3          -4.7400    -0.1300    -0.9480 ha         1 E3Y       0.127000
     26 H4          -1.5620     2.1330    -2.8820 hc         1 E3Y       0.057700
     27 H5          -1.5070     1.1150    -4.3210 hc         1 E3Y       0.057700
     28 H6          -0.0290    -0.5100    -3.1860 h1         1 E3Y       0.059700
     29 H7           0.6610     1.1210    -3.0810 h1         1 E3Y       0.059700
     30 H8          -2.4450    -0.2520     2.7090 ha         1 E3Y       0.121000
     31 H9          -4.6250     0.3190     3.5580 h1         1 E3Y       0.041367
     32 H10         -6.0540    -0.7180     3.3650 h1         1 E3Y       0.041367
     33 H11         -4.4340    -1.4450     3.3760 h1         1 E3Y       0.041367
     34 H12         -2.7090    -0.7070    -3.1580 hc         1 E3Y       0.056200
     35 H13         -3.6230     0.7880    -2.9670 hc         1 E3Y       0.056200
     36 H14          1.0720    -4.3100     0.1160 ha         1 E3Y       0.131000
     37 H15         -0.0030    -2.2380    -0.7720 ha         1 E3Y       0.127000
     38 O1          -4.9430    -0.4180     1.6200 os         1 E3Y      -0.342100
@<TRIPOS>BOND
     1     1    18 ar  
     2     1    21 ar  
     3     1    22 1   
     4     2     4 ar  
     5     2    18 ar  
     6     2    19 ar  
     7     3    16 ar  
     8     3    19 ar  
     9     3    23 1   
    10     4     5 ar  
    11     4    17 ar  
    12     5    20 1   
    13     5    21 ar  
    14     6     7 ar  
    15     6    10 ar  
    16     6    20 1   
    17     7    13 ar  
    18     7    24 1   
    19     8     9 ar  
    20     8    13 ar  
    21     8    38 1   
    22     9    10 ar  
    23     9    25 1   
    24    10    15 1   
    25    11    12 1   
    26    11    15 1   
    27    11    26 1   
    28    11    27 1   
    29    12    20 1   
    30    12    28 1   
    31    12    29 1   
    32    13    30 1   
    33    14    31 1   
    34    14    32 1   
    35    14    33 1   
    36    14    38 1   
    37    15    34 1   
    38    15    35 1   
    39    16    17 ar  
    40    16    36 1   
    41    17    37 1   
@<TRIPOS>SUBSTRUCTURE
     1 E3Y         1 TEMP              0 ****  ****    0 ROOT
