@<TRIPOS>MOLECULE
E3Y
   38    41     1     0     0
SMALL
bcc


@<TRIPOS>ATOM
      1 C1           2.0030     0.9940     1.0860 ca         1 E3Y       0.794000
      2 C2           3.1320    -0.6650     0.1030 ca         1 E3Y       0.691300
      3 C3           4.3100    -2.4330    -0.7100 ca         1 E3Y       0.453200
      4 C6           1.9230    -1.1690    -0.4250 ca         1 E3Y      -0.352600
      5 C7           0.7490    -0.3730    -0.1980 ca         1 E3Y       0.748200
      6 C8          -1.6560    -0.2490    -0.1800 ca         1 E3Y       0.113600
      7 C9          -1.8620    -0.4330     1.1840 ca         1 E3Y      -0.081000
      8 C11         -4.0660     0.5000     1.0240 ca         1 E3Y       0.135100
      9 C13         -3.8740     0.6520    -0.3440 ca         1 E3Y      -0.154000
     10 C14         -2.6840     0.2860    -0.9600 ca         1 E3Y      -0.063300
     11 C16         -1.1410     0.1700    -2.9440 c6         1 E3Y      -0.104400
     12 C17         -0.5210    -1.0020    -2.2020 c6         1 E3Y       0.224800
     13 C10         -3.0440    -0.0570     1.7940 ca         1 E3Y      -0.197000
     14 C12         -5.5050     0.7350     2.8960 c3         1 E3Y       0.125700
     15 C15         -2.5570     0.4220    -2.4540 c6         1 E3Y      -0.028100
     16 C4           3.1520    -3.0760    -1.1760 ca         1 E3Y      -0.275300
     17 C5           1.9500    -2.4370    -1.0300 ca         1 E3Y      -0.041000
     18 N1           3.1590     0.4550     0.8650 nb         1 E3Y      -0.689000
     19 N2           4.3090    -1.2840    -0.0780 nb         1 E3Y      -0.643000
     20 N3          -0.4430    -0.6800    -0.7750 nh         1 E3Y      -0.656700
     21 N4           0.8130     0.6710     0.6080 nb         1 E3Y      -0.770000
     22 CL1          1.9990     2.3770     2.1350 cl         1 E3Y      -0.126000
     23 H1           5.2750    -2.9080    -0.8490 h4         1 E3Y       0.027100
     24 H2          -1.0880    -0.8840     1.7910 ha         1 E3Y       0.139000
     25 H3          -4.6750     1.0690    -0.9450 ha         1 E3Y       0.145000
     26 H4          -0.5120     1.0520    -2.7970 hc         1 E3Y       0.057700
     27 H5          -1.1430    -0.0440    -4.0140 hc         1 E3Y       0.057700
     28 H6          -1.1110    -1.9110    -2.3400 h1         1 E3Y       0.059700
     29 H7           0.4750    -1.1880    -2.5920 h1         1 E3Y       0.059700
     30 H8          -3.1530    -0.2160     2.8580 ha         1 E3Y       0.139000
     31 H9          -4.7950     1.2960     3.5100 h1         1 E3Y       0.041367
     32 H10         -6.5050     1.1190     3.0780 h1         1 E3Y       0.041367
     33 H11         -5.4730    -0.3170     3.1950 h1         1 E3Y       0.041367
     34 H12         -3.2360    -0.2980    -2.9200 hc         1 E3Y       0.056200
     35 H13         -2.9010     1.4090    -2.7680 hc         1 E3Y       0.056200
     36 H14          3.2200    -4.0520    -1.6330 ha         1 E3Y       0.149000
     37 H15          1.0370    -2.9180    -1.3540 ha         1 E3Y       0.145000
     38 O1          -5.2570     0.8990     1.5140 os         1 E3Y      -0.318900
@<TRIPOS>BOND
     1     1    18 ar  
     2     1    21 ar  
     3     1    22 1   
     4     2     4 ar  
     5     2    18 ar  
     6     2    19 ar  
     7     3    16 ar  
     8     3    19 ar  
     9     3    23 1   
    10     4     5 ar  
    11     4    17 ar  
    12     5    20 1   
    13     5    21 ar  
    14     6     7 ar  
    15     6    10 ar  
    16     6    20 1   
    17     7    13 ar  
    18     7    24 1   
    19     8     9 ar  
    20     8    13 ar  
    21     8    38 1   
    22     9    10 ar  
    23     9    25 1   
    24    10    15 1   
    25    11    12 1   
    26    11    15 1   
    27    11    26 1   
    28    11    27 1   
    29    12    20 1   
    30    12    28 1   
    31    12    29 1   
    32    13    30 1   
    33    14    31 1   
    34    14    32 1   
    35    14    33 1   
    36    14    38 1   
    37    15    34 1   
    38    15    35 1   
    39    16    17 ar  
    40    16    36 1   
    41    17    37 1   
@<TRIPOS>SUBSTRUCTURE
     1 E3Y         1 TEMP              0 ****  ****    0 ROOT
