@<TRIPOS>MOLECULE
E3Z
   42    44     1     0     0
SMALL
No Charge or Current Charge


@<TRIPOS>ATOM
      1 C4           0.6460     2.0410     0.0730 ca         1 E3Z       0.446900
      2 C5           1.6940     2.9140     0.4250 ca         1 E3Z      -0.122000
      3 C6           2.9800     2.3610     0.5270 ca         1 E3Z       0.188900
      4 N1           3.2040     1.0540     0.2930 nb         1 E3Z      -0.255000
      5 N3           0.8700     0.7400    -0.1730 nb         1 E3Z      -0.325000
      6 CAA          4.4130    -1.7660     0.7190 ca         1 E3Z      -0.151000
      7 CAB          5.4600    -2.7020     0.7970 ca         1 E3Z      -0.082500
      8 CAC          5.4730    -3.8130    -0.0620 ca         1 E3Z      -0.137000
      9 CAD          4.4370    -3.9900    -0.9930 ca         1 E3Z      -0.082500
     10 CAE          3.3920    -3.0520    -1.0670 ca         1 E3Z      -0.151000
     11 CAF          3.3780    -1.9280    -0.2230 ca         1 E3Z       0.315000
     12 C2           2.1320     0.3130    -0.0360 ca         1 E3Z       0.430900
     13 Cl5          1.4290     4.6360     0.7230 cl         1 E3Z      -0.181000
     14 NAO         -0.6530     2.5230    -0.0800 nu         1 E3Z      -0.925900
     15 CAP         -1.9020     1.9390    -0.2890 ca         1 E3Z       0.334000
     16 CAU         -2.2070     0.6350     0.1400 ca         1 E3Z      -0.194000
     17 CAQ         -2.8970     2.7060    -0.9120 ca         1 E3Z      -0.193000
     18 CAR         -4.1740     2.1680    -1.1320 ca         1 E3Z      -0.057000
     19 CAS         -4.4670     0.8580    -0.7170 ca         1 E3Z      -0.156000
     20 CAT         -3.4820     0.0790    -0.0720 ca         1 E3Z       0.008000
     21 NAV         -3.7050    -1.2480     0.3900 ns         1 E3Z      -0.143000
     22 CAW         -4.8080    -2.0890     0.3300 c          1 E3Z       0.609300
     23 OAX         -5.8780    -1.7970    -0.1900 o          1 E3Z      -0.581100
     24 CAY         -4.5790    -3.4230     0.9660 ce         1 E3Z      -0.308200
     25 CAZ         -5.5020    -4.4170     1.0190 c2         1 E3Z      -0.222000
     26 H1           3.8430     2.9700     0.7930 h4         1 E3Z       0.035100
     27 H3           6.2560    -2.5690     1.5270 ha         1 E3Z       0.113000
     28 H4           6.2820    -4.5380    -0.0020 ha         1 E3Z       0.116000
     29 H5           4.4420    -4.8530    -1.6560 ha         1 E3Z       0.113000
     30 H6           2.5960    -3.1980    -1.7920 ha         1 E3Z       0.129000
     31 H8          -0.6740     3.5420    -0.1030 hn         1 E3Z       0.512000
     32 H9          -1.4560     0.0490     0.6590 ha         1 E3Z       0.143000
     33 H10         -2.6810     3.7190    -1.2370 ha         1 E3Z       0.114000
     34 H11         -4.9390     2.7660    -1.6230 ha         1 E3Z       0.117000
     35 H12         -5.4650     0.4740    -0.9010 ha         1 E3Z       0.152000
     36 H13         -2.9030    -1.6560     0.8530 hn         1 E3Z       0.150000
     37 H14         -3.5920    -3.5750     1.4040 ha         1 E3Z       0.176000
     38 H16         -6.5000    -4.3040     0.5910 ha         1 E3Z       0.178500
     39 H17         -5.2870    -5.3760     1.4940 ha         1 E3Z       0.178500
     40 NAG          2.3090    -1.0300    -0.3260 nu         1 E3Z      -0.924900
     41 H2           4.4070    -0.9280     1.4080 ha         1 E3Z       0.129000
     42 H7           1.4900    -1.4250    -0.7850 hn         1 E3Z       0.505000
@<TRIPOS>BOND
     1     1     2 ar  
     2     1     5 ar  
     3     1    14 1   
     4     2     3 ar  
     5     2    13 1   
     6     3     4 ar  
     7     3    26 1   
     8     4    12 ar  
     9     5    12 ar  
    10     6     7 ar  
    11     6    11 ar  
    12     6    41 1   
    13     7     8 ar  
    14     7    27 1   
    15     8     9 ar  
    16     8    28 1   
    17     9    10 ar  
    18     9    29 1   
    19    10    11 ar  
    20    10    30 1   
    21    11    40 1   
    22    12    40 1   
    23    14    15 1   
    24    14    31 1   
    25    15    16 ar  
    26    15    17 ar  
    27    16    20 ar  
    28    16    32 1   
    29    17    18 ar  
    30    17    33 1   
    31    18    19 ar  
    32    18    34 1   
    33    19    20 ar  
    34    19    35 1   
    35    20    21 1   
    36    21    22 1   
    37    21    36 1   
    38    22    23 2   
    39    22    24 1   
    40    24    25 2   
    41    24    37 1   
    42    25    38 1   
    43    25    39 1   
    44    40    42 1   
@<TRIPOS>SUBSTRUCTURE
     1 E3Z         1 TEMP              0 ****  ****    0 ROOT
