@<TRIPOS>MOLECULE
E3Z
   42    44     1     0     0
SMALL
bcc


@<TRIPOS>ATOM
      1 C4           0.6150     2.0690    -0.0910 ca         1 E3Z       0.775200
      2 C5           1.7350     2.9370    -0.0740 ca         1 E3Z      -0.344200
      3 C6           2.9750     2.3580    -0.0070 ca         1 E3Z       0.517200
      4 N1           3.1620     1.0420     0.0370 nb         1 E3Z      -0.781000
      5 N3           0.8090     0.7650    -0.0490 nb         1 E3Z      -0.851000
      6 CAA          4.5640    -1.5230     0.2500 ca         1 E3Z      -0.169000
      7 CAB          5.5640    -2.4860     0.3080 ca         1 E3Z      -0.100500
      8 CAC          5.2730    -3.8390     0.2210 ca         1 E3Z      -0.155000
      9 CAD          3.9470    -4.2300     0.0730 ca         1 E3Z      -0.100500
     10 CAE          2.9390    -3.2840     0.0130 ca         1 E3Z      -0.169000
     11 CAF          3.2320    -1.9170     0.1000 ca         1 E3Z       0.176600
     12 C2           2.0620     0.3040     0.0110 ca         1 E3Z       0.956900
     13 CL5          1.5530     4.6530    -0.1290 cl         1 E3Z      -0.089400
     14 NAO         -0.6330     2.5830    -0.1490 nu         1 E3Z      -0.732300
     15 CAP         -1.8850     1.9670    -0.1510 ca         1 E3Z       0.195600
     16 CAU         -2.0980     0.5970    -0.0590 ca         1 E3Z      -0.212000
     17 CAQ         -2.9880     2.8230    -0.2480 ca         1 E3Z      -0.211000
     18 CAR         -4.2630     2.2970    -0.2510 ca         1 E3Z      -0.075000
     19 CAS         -4.4950     0.9300    -0.1580 ca         1 E3Z      -0.174000
     20 CAT         -3.3970     0.0780    -0.0600 ca         1 E3Z       0.100600
     21 NAV         -3.4880    -1.3120     0.0450 ns         1 E3Z      -0.469100
     22 CAW         -4.5850    -2.1130     0.0440 c          1 E3Z       0.676300
     23 OAX         -5.7310    -1.7090    -0.0570 o          1 E3Z      -0.581100
     24 CAY         -4.2470    -3.5540     0.1790 ce         1 E3Z      -0.258200
     25 CAZ         -5.1900    -4.4890     0.1910 c2         1 E3Z      -0.122000
     26 H1           3.8620     2.9800     0.0130 h4         1 E3Z       0.035100
     27 H3           6.5900    -2.1610     0.4250 ha         1 E3Z       0.131000
     28 H4           6.0620    -4.5770     0.2690 ha         1 E3Z       0.134000
     29 H5           3.6930    -5.2790     0.0040 ha         1 E3Z       0.131000
     30 H6           1.9110    -3.6050    -0.1060 ha         1 E3Z       0.147000
     31 H8          -0.6770     3.5900    -0.1880 hn         1 E3Z       0.456800
     32 H9          -1.2570    -0.0750     0.0140 ha         1 E3Z       0.161000
     33 H10         -2.8420     3.8940    -0.3200 ha         1 E3Z       0.132000
     34 H11         -5.1090     2.9680    -0.3270 ha         1 E3Z       0.135000
     35 H12         -5.5040     0.5550    -0.1610 ha         1 E3Z       0.170000
     36 H13         -2.6020    -1.7840     0.1380 hn         1 E3Z       0.316500
     37 H14         -3.2020    -3.8300     0.2690 ha         1 E3Z       0.126000
     38 H16         -6.2400    -4.2430     0.1040 ha         1 E3Z       0.128500
     39 H17         -4.9360    -5.5350     0.2870 ha         1 E3Z       0.128500
     40 NAG          2.1430    -1.0530     0.0420 nu         1 E3Z      -0.731300
     41 H2           4.8170    -0.4790     0.3220 ha         1 E3Z       0.147000
     42 H7           1.2420    -1.5040    -0.0140 hn         1 E3Z       0.449800
@<TRIPOS>BOND
     1     1     2 ar  
     2     1     5 ar  
     3     1    14 1   
     4     2     3 ar  
     5     2    13 1   
     6     3     4 ar  
     7     3    26 1   
     8     4    12 ar  
     9     5    12 ar  
    10     6     7 ar  
    11     6    11 ar  
    12     6    41 1   
    13     7     8 ar  
    14     7    27 1   
    15     8     9 ar  
    16     8    28 1   
    17     9    10 ar  
    18     9    29 1   
    19    10    11 ar  
    20    10    30 1   
    21    11    40 1   
    22    12    40 1   
    23    14    15 1   
    24    14    31 1   
    25    15    16 ar  
    26    15    17 ar  
    27    16    20 ar  
    28    16    32 1   
    29    17    18 ar  
    30    17    33 1   
    31    18    19 ar  
    32    18    34 1   
    33    19    20 ar  
    34    19    35 1   
    35    20    21 1   
    36    21    22 1   
    37    21    36 1   
    38    22    23 2   
    39    22    24 1   
    40    24    25 2   
    41    24    37 1   
    42    25    38 1   
    43    25    39 1   
    44    40    42 1   
@<TRIPOS>SUBSTRUCTURE
     1 E3Z         1 TEMP              0 ****  ****    0 ROOT
