@<TRIPOS>MOLECULE
E41
   55    56     1     0     0
SMALL
abcg2


@<TRIPOS>ATOM
      1 O1          -1.0800     1.4320    -2.3850 oh         1 E41      -0.423100
      2 N1           0.0700     1.0890    -1.7460 ns         1 E41      -0.387400
      3 N            1.4820    -0.3480     0.4820 n3         1 E41      -0.770500
      4 CA           1.6580     1.0490     0.0540 c3         1 E41       0.164500
      5 C            0.3420     1.5910    -0.5280 c          1 E41       0.568100
      6 O           -0.4090     2.3240     0.0830 o          1 E41      -0.546100
      7 CB           2.2580     2.0020     1.0950 c3         1 E41      -0.059700
      8 CG1          3.4620     1.3840     1.7940 c3         1 E41      -0.086600
      9 CG2          2.6710     3.3030     0.4090 c3         1 E41      -0.086600
     10 O3           0.5640    -2.1590     1.9250 o          1 E41      -0.531000
     11 O4           0.2730     0.2350     2.6090 o          1 E41      -0.531000
     12 C6          -1.2400    -0.7260     0.7060 ca         1 E41      -0.305500
     13 C7          -1.4330    -1.5840    -0.4000 ca         1 E41      -0.043000
     14 C8          -2.6070    -1.5320    -1.0940 ca         1 E41      -0.130000
     15 C9          -2.2140     0.1420     1.1110 ca         1 E41       0.056000
     16 C10         -3.4420     0.1970     0.4150 ca         1 E41      -0.065000
     17 C11         -3.6430    -0.6450    -0.7080 ca         1 E41      -0.005000
     18 C12         -4.8690    -0.5770    -1.4080 ca         1 E41      -0.118000
     19 C13         -5.8490     0.2900    -1.0050 ca         1 E41      -0.081000
     20 C14         -5.6490     1.1280     0.1110 ca         1 E41      -0.115000
     21 C15         -4.4710     1.0840     0.8060 ca         1 E41      -0.071000
     22 C16          3.5570    -1.5160    -0.2270 c3         1 E41      -0.085400
     23 C17          4.1520    -2.6590    -1.0520 c3         1 E41      -0.062700
     24 C18          2.0510    -1.3830    -0.3930 c3         1 E41       0.223800
     25 C19          3.9660    -2.4490    -2.5530 c3         1 E41      -0.088600
     26 C20          5.6300    -2.8280    -0.7160 c3         1 E41      -0.088600
     27 H1           0.7710     0.6620    -2.3350 hn         1 E41       0.334500
     28 HA           2.3840     0.9840    -0.7620 h1         1 E41       0.062700
     29 H181         1.5950    -2.3430    -0.1630 h1         1 E41       0.049200
     30 H182         1.7850    -1.1580    -1.4290 h1         1 E41       0.049200
     31 HB           1.5000     2.2290     1.8430 hc         1 E41       0.098700
     32 HG11         4.2720     1.1880     1.0890 hc         1 E41       0.037700
     33 HG12         3.8460     2.0700     2.5490 hc         1 E41       0.037700
     34 HG13         3.2160     0.4480     2.2920 hc         1 E41       0.037700
     35 HG21         1.8320     3.8230    -0.0530 hc         1 E41       0.037700
     36 HG22         3.1140     3.9850     1.1340 hc         1 E41       0.037700
     37 HG23         3.4200     3.1150    -0.3640 hc         1 E41       0.037700
     38 H7          -0.6650    -2.2810    -0.7070 ha         1 E41       0.117000
     39 H9          -2.0620     0.8010     1.9550 ha         1 E41       0.151000
     40 H8          -2.7570    -2.1830    -1.9460 ha         1 E41       0.116000
     41 H15         -4.3150     1.7280     1.6620 ha         1 E41       0.124000
     42 H12         -5.0200    -1.2200    -2.2660 ha         1 E41       0.117000
     43 H13         -6.7850     0.3340    -1.5450 ha         1 E41       0.116000
     44 H14         -6.4330     1.8090     0.4150 ha         1 E41       0.119000
     45 H161         3.7690    -1.6850     0.8320 hc         1 E41       0.052700
     46 H162         4.0580    -0.5810    -0.5010 hc         1 E41       0.052700
     47 H17          3.6350    -3.5830    -0.7680 hc         1 E41       0.051700
     48 H191         2.9160    -2.4400    -2.8470 hc         1 E41       0.033367
     49 H192         4.4090    -1.5020    -2.8700 hc         1 E41       0.033367
     50 H193         4.4500    -3.2470    -3.1190 hc         1 E41       0.033367
     51 H201         5.7790    -3.0220     0.3470 hc         1 E41       0.033367
     52 H202         6.0660    -3.6600    -1.2720 hc         1 E41       0.033367
     53 H203         6.1950    -1.9280    -0.9730 hc         1 E41       0.033367
     54 H1O         -1.6960     0.7010    -2.2350 ho         1 E41       0.449000
     55 S1           0.3130    -0.7720     1.5640 sy         1 E41       1.180600
@<TRIPOS>BOND
     1     1     2 1   
     2     1    54 1   
     3     2     5 1   
     4     2    27 1   
     5     3     4 1   
     6     3    24 1   
     7     3    55 1   
     8     4     5 1   
     9     4     7 1   
    10     4    28 1   
    11     5     6 2   
    12     7     8 1   
    13     7     9 1   
    14     7    31 1   
    15     8    32 1   
    16     8    33 1   
    17     8    34 1   
    18     9    35 1   
    19     9    36 1   
    20     9    37 1   
    21    10    55 2   
    22    11    55 2   
    23    12    13 ar  
    24    12    15 ar  
    25    12    55 1   
    26    13    14 ar  
    27    13    38 1   
    28    14    17 ar  
    29    14    40 1   
    30    15    16 ar  
    31    15    39 1   
    32    16    17 ar  
    33    16    21 ar  
    34    17    18 ar  
    35    18    19 ar  
    36    18    42 1   
    37    19    20 ar  
    38    19    43 1   
    39    20    21 ar  
    40    20    44 1   
    41    21    41 1   
    42    22    23 1   
    43    22    24 1   
    44    22    45 1   
    45    22    46 1   
    46    23    25 1   
    47    23    26 1   
    48    23    47 1   
    49    24    29 1   
    50    24    30 1   
    51    25    48 1   
    52    25    49 1   
    53    25    50 1   
    54    26    51 1   
    55    26    52 1   
    56    26    53 1   
@<TRIPOS>SUBSTRUCTURE
     1 E41         1 TEMP              0 ****  ****    0 ROOT
