@<TRIPOS>MOLECULE
E41
   55    56     1     0     0
SMALL
No Charge or Current Charge


@<TRIPOS>ATOM
      1 O1          -0.9690     1.6390    -2.1850 oh         1 E41      -0.423100
      2 N1           0.2740     1.3180    -1.6100 ns         1 E41      -0.387400
      3 N            1.6220    -0.3440     0.9380 n3         1 E41      -0.770500
      4 CA           1.7080     1.0750     0.4240 c3         1 E41       0.164500
      5 C            0.4270     1.6510    -0.2790 c          1 E41       0.568100
      6 O           -0.3750     2.4050     0.2610 o          1 E41      -0.546100
      7 CB           2.3360     2.0870     1.4470 c3         1 E41      -0.059700
      8 CG1          3.5670     1.4990     2.1850 c3         1 E41      -0.086600
      9 CG2          2.7240     3.4320     0.7780 c3         1 E41      -0.086600
     10 O3           0.5730    -2.0870     2.4620 o          1 E41      -0.531000
     11 O4           0.1350     0.3730     2.9010 o          1 E41      -0.531000
     12 C6          -1.1240    -0.8010     0.8470 ca         1 E41      -0.305500
     13 C7          -1.2600    -1.8410    -0.0970 ca         1 E41      -0.043000
     14 C8          -2.3780    -1.8840    -0.9460 ca         1 E41      -0.130000
     15 C9          -2.1540     0.1550     0.9750 ca         1 E41       0.056000
     16 C10         -3.2730     0.1150     0.1210 ca         1 E41      -0.065000
     17 C11         -3.3820    -0.9050    -0.8480 ca         1 E41      -0.005000
     18 C12         -4.4990    -0.9450    -1.7030 ca         1 E41      -0.118000
     19 C13         -5.5050     0.0310    -1.5950 ca         1 E41      -0.081000
     20 C14         -5.3970     1.0470    -0.6300 ca         1 E41      -0.115000
     21 C15         -4.2840     1.0900     0.2280 ca         1 E41      -0.071000
     22 C16          3.4640    -1.3860    -0.4820 c3         1 E41      -0.085400
     23 C17          3.8960    -2.6320    -1.3020 c3         1 E41      -0.062700
     24 C18          1.9750    -1.3900    -0.0550 c3         1 E41       0.223800
     25 C19          3.1180    -2.7700    -2.6330 c3         1 E41      -0.088600
     26 C20          5.4210    -2.6250    -1.5560 c3         1 E41      -0.088600
     27 H1           0.7910     0.5420    -2.0190 hn         1 E41       0.334500
     28 HA           2.4440     1.0790    -0.3870 h1         1 E41       0.062700
     29 H181         1.7870    -2.3880     0.3620 h1         1 E41       0.049200
     30 H182         1.3420    -1.2950    -0.9460 h1         1 E41       0.049200
     31 HB           1.5830     2.3200     2.2080 hc         1 E41       0.098700
     32 HG11         4.3430     1.1990     1.4710 hc         1 E41       0.037700
     33 HG12         3.9990     2.2390     2.8700 hc         1 E41       0.037700
     34 HG13         3.2910     0.6220     2.7830 hc         1 E41       0.037700
     35 HG21         1.8550     3.9280     0.3310 hc         1 E41       0.037700
     36 HG22         3.1500     4.1220     1.5170 hc         1 E41       0.037700
     37 HG23         3.4720     3.2760    -0.0100 hc         1 E41       0.037700
     38 H7          -0.5090    -2.6240    -0.1750 ha         1 E41       0.117000
     39 H9          -2.0870     0.9410     1.7260 ha         1 E41       0.151000
     40 H8          -2.4640    -2.6850    -1.6780 ha         1 E41       0.116000
     41 H15         -4.2110     1.8800     0.9720 ha         1 E41       0.124000
     42 H12         -4.5890    -1.7300    -2.4510 ha         1 E41       0.117000
     43 H13         -6.3670    -0.0010    -2.2580 ha         1 E41       0.116000
     44 H14         -6.1770     1.8010    -0.5470 ha         1 E41       0.119000
     45 H161         4.0760    -1.3330     0.4270 hc         1 E41       0.052700
     46 H162         3.6900    -0.4890    -1.0670 hc         1 E41       0.052700
     47 H17          3.6760    -3.5220    -0.6990 hc         1 E41       0.051700
     48 H191         2.0460    -2.9100    -2.4540 hc         1 E41       0.033367
     49 H192         3.2520    -1.8790    -3.2580 hc         1 E41       0.033367
     50 H193         3.4730    -3.6400    -3.1990 hc         1 E41       0.033367
     51 H201         5.9720    -2.5830    -0.6090 hc         1 E41       0.033367
     52 H202         5.7310    -3.5330    -2.0870 hc         1 E41       0.033367
     53 H203         5.7120    -1.7570    -2.1610 hc         1 E41       0.033367
     54 H1O         -1.3940     1.9680    -1.3550 ho         1 E41       0.449000
     55 S1           0.2950    -0.7370     1.9580 sy         1 E41       1.180600
@<TRIPOS>BOND
     1     1     2 1   
     2     1    54 1   
     3     2     5 1   
     4     2    27 1   
     5     3     4 1   
     6     3    24 1   
     7     3    55 1   
     8     4     5 1   
     9     4     7 1   
    10     4    28 1   
    11     5     6 2   
    12     7     8 1   
    13     7     9 1   
    14     7    31 1   
    15     8    32 1   
    16     8    33 1   
    17     8    34 1   
    18     9    35 1   
    19     9    36 1   
    20     9    37 1   
    21    10    55 2   
    22    11    55 2   
    23    12    13 ar  
    24    12    15 ar  
    25    12    55 1   
    26    13    14 ar  
    27    13    38 1   
    28    14    17 ar  
    29    14    40 1   
    30    15    16 ar  
    31    15    39 1   
    32    16    17 ar  
    33    16    21 ar  
    34    17    18 ar  
    35    18    19 ar  
    36    18    42 1   
    37    19    20 ar  
    38    19    43 1   
    39    20    21 ar  
    40    20    44 1   
    41    21    41 1   
    42    22    23 1   
    43    22    24 1   
    44    22    45 1   
    45    22    46 1   
    46    23    25 1   
    47    23    26 1   
    48    23    47 1   
    49    24    29 1   
    50    24    30 1   
    51    25    48 1   
    52    25    49 1   
    53    25    50 1   
    54    26    51 1   
    55    26    52 1   
    56    26    53 1   
@<TRIPOS>SUBSTRUCTURE
     1 E41         1 TEMP              0 ****  ****    0 ROOT
