@<TRIPOS>MOLECULE
E42
   33    34     1     0     0
SMALL
bcc


@<TRIPOS>ATOM
      1 C1           0.1120     0.2000     0.4570 ca         1 E42      -0.114000
      2 C2           1.2800     0.9530     0.5400 ca         1 E42      -0.031300
      3 C3           1.2130     2.3120     0.2500 ca         1 E42      -0.105000
      4 C4           0.0070     2.8980    -0.1070 ca         1 E42      -0.143000
      5 C5          -1.1480     2.1360    -0.1880 ca         1 E42      -0.136000
      6 C6          -1.1090     0.7690     0.0950 cp         1 E42      -0.063000
      7 C7          -4.6590    -1.6060    -0.1300 ca         1 E42      -0.236000
      8 C8          -3.4360    -2.1300    -0.5220 ca         1 E42      -0.093000
      9 C9          -2.2790    -1.3710    -0.4530 ca         1 E42      -0.152000
     10 C10         -2.3330    -0.0570     0.0180 cp         1 E42       0.028000
     11 C11         -3.5600     0.4700     0.4140 ca         1 E42      -0.162000
     12 C12         -4.7200    -0.2970     0.3410 ca         1 E42       0.126100
     13 O1          -5.8720     0.2760     0.7450 oh         1 E42      -0.503100
     14 C13          2.5720     0.2910     0.9210 c3         1 E42      -0.025100
     15 C14          3.3060    -0.3330    -0.2750 c3         1 E42       0.015500
     16 N1           3.6370     0.6970    -1.2420 n8         1 E42      -0.885800
     17 C15          4.4970    -1.1830     0.2430 c          1 E42       0.902600
     18 O2           4.1970    -2.1450     0.9800 o          1 E42      -0.837300
     19 O3           5.6440    -0.8470    -0.1090 o          1 E42      -0.837300
     20 H1           0.1560    -0.8550     0.7040 ha         1 E42       0.136000
     21 H2           2.1080     2.9190     0.3120 ha         1 E42       0.131000
     22 H3          -0.0330     3.9570    -0.3320 ha         1 E42       0.115000
     23 H4          -2.0780     2.6020    -0.4870 ha         1 E42       0.116000
     24 H7          -1.3390    -1.7920    -0.7870 ha         1 E42       0.148000
     25 H8          -3.6230     1.4790     0.8050 ha         1 E42       0.145000
     26 H9          -6.6050    -0.3420     0.6470 ho         1 E42       0.416000
     27 H10          3.2340     1.0180     1.4030 hc         1 E42       0.052700
     28 H11          2.3810    -0.4940     1.6520 hc         1 E42       0.052700
     29 H12          2.6060    -1.0270    -0.7580 h1         1 E42       0.042700
     30 H13          4.3140     1.3240    -0.8220 hn         1 E42       0.326300
     31 H14          4.1400     0.2670    -2.0090 hn         1 E42       0.326300
     32 H5          -5.5560    -2.2110    -0.1910 ha         1 E42       0.119000
     33 H6          -3.3910    -3.1450    -0.8960 ha         1 E42       0.125000
@<TRIPOS>BOND
     1     1     2 ar  
     2     1     6 ar  
     3     1    20 1   
     4     2     3 ar  
     5     2    14 1   
     6     3     4 ar  
     7     3    21 1   
     8     4     5 ar  
     9     4    22 1   
    10     5     6 ar  
    11     5    23 1   
    12     6    10 1   
    13     7     8 ar  
    14     7    12 ar  
    15     7    32 1   
    16     8     9 ar  
    17     8    33 1   
    18     9    10 ar  
    19     9    24 1   
    20    10    11 ar  
    21    11    12 ar  
    22    11    25 1   
    23    12    13 1   
    24    13    26 1   
    25    14    15 1   
    26    14    27 1   
    27    14    28 1   
    28    15    16 1   
    29    15    17 1   
    30    15    29 1   
    31    16    30 1   
    32    16    31 1   
    33    17    18 1   
    34    17    19 1   
@<TRIPOS>SUBSTRUCTURE
     1 E42         1 TEMP              0 ****  ****    0 ROOT
