@<TRIPOS>MOLECULE
E42
   33    34     1     0     0
SMALL
No Charge or Current Charge


@<TRIPOS>ATOM
      1 C1           0.1640     0.2960     0.4430 ca         1 E42      -0.096000
      2 C2           1.3180     1.0980     0.5440 ca         1 E42      -0.031300
      3 C3           1.2130     2.4850     0.3330 ca         1 E42      -0.087000
      4 C4          -0.0280     3.0600     0.0190 ca         1 E42      -0.125000
      5 C5          -1.1730     2.2530    -0.0840 ca         1 E42      -0.118000
      6 C6          -1.1020     0.8530     0.1260 cp         1 E42      -0.063000
      7 C7          -4.6390    -1.6440    -0.1820 ca         1 E42      -0.218000
      8 C8          -3.3910    -2.1400    -0.5920 ca         1 E42      -0.075000
      9 C9          -2.2460    -1.3310    -0.4910 ca         1 E42      -0.134000
     10 C10         -2.3230    -0.0100     0.0190 cp         1 E42       0.028000
     11 C11         -3.5950     0.4670     0.4240 ca         1 E42      -0.144000
     12 C12         -4.7380    -0.3410     0.3250 ca         1 E42       0.126100
     13 O1          -5.9470     0.1410     0.7260 oh         1 E42      -0.542100
     14 C13          2.6610     0.4670     0.9090 c3         1 E42      -0.025100
     15 C14          3.2610    -0.4340    -0.2050 c3         1 E42       0.015500
     16 N1           3.5370     0.3620    -1.4600 n8         1 E42      -0.996200
     17 C15          4.4800    -1.2650     0.3700 c          1 E42       0.692000
     18 O2           4.3380    -2.4700     0.5260 o          1 E42      -0.732000
     19 O3           5.5500    -0.6920     0.5350 o          1 E42      -0.732000
     20 H1           0.2490    -0.7720     0.6280 ha         1 E42       0.118000
     21 H2           2.0940     3.1180     0.4100 ha         1 E42       0.113000
     22 H3          -0.1030     4.1320    -0.1480 ha         1 E42       0.097000
     23 H4          -2.1210     2.7180    -0.3410 ha         1 E42       0.098000
     24 H7          -1.2920    -1.7280    -0.8260 ha         1 E42       0.130000
     25 H8          -3.6940     1.4680     0.8330 ha         1 E42       0.127000
     26 H9          -6.6190    -0.5590     0.5840 ho         1 E42       0.455000
     27 H10          3.3910     1.2410     1.1780 hc         1 E42       0.052700
     28 H11          2.5310    -0.1410     1.8130 hc         1 E42       0.052700
     29 H12          2.4920    -1.1730    -0.4690 h1         1 E42       0.042700
     30 H13          4.3450     0.9710    -1.2840 hn         1 E42       0.381500
     31 H14          3.8790    -0.2740    -2.1900 hn         1 E42       0.381500
     32 H5          -5.5210    -2.2750    -0.2630 ha         1 E42       0.101000
     33 H6          -3.3090    -3.1500    -0.9900 ha         1 E42       0.107000
@<TRIPOS>BOND
     1     1     2 ar  
     2     1     6 ar  
     3     1    20 1   
     4     2     3 ar  
     5     2    14 1   
     6     3     4 ar  
     7     3    21 1   
     8     4     5 ar  
     9     4    22 1   
    10     5     6 ar  
    11     5    23 1   
    12     6    10 1   
    13     7     8 ar  
    14     7    12 ar  
    15     7    32 1   
    16     8     9 ar  
    17     8    33 1   
    18     9    10 ar  
    19     9    24 1   
    20    10    11 ar  
    21    11    12 ar  
    22    11    25 1   
    23    12    13 1   
    24    13    26 1   
    25    14    15 1   
    26    14    27 1   
    27    14    28 1   
    28    15    16 1   
    29    15    17 1   
    30    15    29 1   
    31    16    30 1   
    32    16    31 1   
    33    17    18 1   
    34    17    19 1   
@<TRIPOS>SUBSTRUCTURE
     1 E42         1 TEMP              0 ****  ****    0 ROOT
