@<TRIPOS>MOLECULE
E44
   38    41     1     0     0
SMALL
No Charge or Current Charge


@<TRIPOS>ATOM
      1 C1          -3.1860     0.7640    -0.9710 ca         1 E44       0.272000
      2 C2          -2.8840    -0.5140     0.9200 ca         1 E44       0.011000
      3 C3          -3.3580    -1.0600     2.1270 ca         1 E44      -0.065000
      4 C4          -2.5140    -1.8930     2.8780 ca         1 E44      -0.136000
      5 C5          -1.2240    -2.1600     2.4010 ca         1 E44       0.330900
      6 C6          -1.5550    -0.8230     0.5020 ca         1 E44       0.137000
      7 C7          -1.1370    -0.2290    -0.7380 ca         1 E44       0.437900
      8 C8           1.3630    -0.1180    -0.6200 ca         1 E44       0.272000
      9 C9           1.3580     0.6990     0.5340 ca         1 E44      -0.076000
     10 C10          2.5500     1.0100     1.2130 ca         1 E44      -0.179000
     11 C11          3.7800     0.5140     0.7390 ca         1 E44       0.133100
     12 C12          5.0670     1.5940     2.5480 c3         1 E44       0.149900
     13 C13          3.8020    -0.2830    -0.4140 ca         1 E44      -0.135000
     14 C14          2.6110    -0.6010    -1.0960 ca         1 E44      -0.056300
     15 C15          2.6970    -1.4510    -2.3670 c6         1 E44      -0.029100
     16 C16          1.3360    -2.0660    -2.7460 c6         1 E44      -0.097400
     17 C17          0.2210    -1.0050    -2.6780 c6         1 E44       0.223800
     18 N1          -3.6860     0.2790     0.1800 nb         1 E44      -0.188000
     19 N2          -0.7520    -1.6440     1.2450 nb         1 E44      -0.624000
     20 N3           0.1510    -0.4160    -1.3130 nh         1 E44      -0.776100
     21 N4          -1.9590     0.5490    -1.4680 nb         1 E44      -0.274000
     22 Cl1         -4.2500     1.7860    -1.9230 cl         1 E44      -0.137000
     23 H1          -4.3660    -0.8430     2.4750 ha         1 E44       0.143000
     24 H2          -2.8510    -2.3300     3.8130 ha         1 E44       0.129000
     25 H3          -0.5470    -2.8060     2.9590 h4         1 E44       0.026100
     26 H4           0.4260     1.1080     0.9110 ha         1 E44       0.118000
     27 H5           2.4960     1.6390     2.0970 ha         1 E44       0.119000
     28 H6           4.6840     2.6050     2.3610 h1         1 E44       0.040367
     29 H7           4.4910     1.1450     3.3670 h1         1 E44       0.040367
     30 H8           6.1100     1.6810     2.8750 h1         1 E44       0.040367
     31 H9           4.7550    -0.6530    -0.7840 ha         1 E44       0.127000
     32 H10          3.0560    -0.8210    -3.1930 hc         1 E44       0.054700
     33 H11          3.4390    -2.2510    -2.2420 hc         1 E44       0.054700
     34 H12          1.3840    -2.5010    -3.7530 hc         1 E44       0.055200
     35 H13          1.0970    -2.8880    -2.0570 hc         1 E44       0.055200
     36 H14          0.4060    -0.2180    -3.4250 h1         1 E44       0.072200
     37 H15         -0.7320    -1.4880    -2.9440 h1         1 E44       0.072200
     38 O1           4.9820     0.7860     1.3600 os         1 E44      -0.342100
@<TRIPOS>BOND
     1     1    18 ar  
     2     1    21 ar  
     3     1    22 1   
     4     2     3 ar  
     5     2     6 ar  
     6     2    18 ar  
     7     3     4 ar  
     8     3    23 1   
     9     4     5 ar  
    10     4    24 1   
    11     5    19 ar  
    12     5    25 1   
    13     6     7 ar  
    14     6    19 ar  
    15     7    20 1   
    16     7    21 ar  
    17     8     9 ar  
    18     8    14 ar  
    19     8    20 1   
    20     9    10 ar  
    21     9    26 1   
    22    10    11 ar  
    23    10    27 1   
    24    11    13 ar  
    25    11    38 1   
    26    12    28 1   
    27    12    29 1   
    28    12    30 1   
    29    12    38 1   
    30    13    14 ar  
    31    13    31 1   
    32    14    15 1   
    33    15    16 1   
    34    15    32 1   
    35    15    33 1   
    36    16    17 1   
    37    16    34 1   
    38    16    35 1   
    39    17    20 1   
    40    17    36 1   
    41    17    37 1   
@<TRIPOS>SUBSTRUCTURE
     1 E44         1 TEMP              0 ****  ****    0 ROOT
