@<TRIPOS>MOLECULE
E44
   38    41     1     0     0
SMALL
bcc


@<TRIPOS>ATOM
      1 C1          -3.3430     0.0910    -1.1230 ca         1 E44       0.798000
      2 C2          -2.7780    -0.6070     0.9140 ca         1 E44       0.339300
      3 C3          -3.1120    -1.0060     2.2240 ca         1 E44      -0.148300
      4 C4          -2.1390    -1.5500     3.0150 ca         1 E44      -0.219300
      5 C5          -0.8430    -1.7060     2.4870 ca         1 E44       0.396200
      6 C6          -1.4370    -0.7450     0.5130 ca         1 E44       0.137000
      7 C7          -1.1280    -0.3070    -0.8320 ca         1 E44       0.700900
      8 C8           1.2980    -0.1040    -0.5880 ca         1 E44       0.133600
      9 C9           1.3300     0.7870     0.4780 ca         1 E44      -0.094000
     10 C10          2.4900     1.0050     1.1980 ca         1 E44      -0.197000
     11 C11          3.6610     0.3450     0.8290 ca         1 E44       0.133100
     12 C12          4.9130     1.3280     2.5890 c3         1 E44       0.126700
     13 C13          3.6410    -0.5000    -0.2750 ca         1 E44      -0.153000
     14 C14          2.4760    -0.7310    -0.9970 ca         1 E44      -0.056300
     15 C15          2.5350    -1.5880    -2.2360 c6         1 E44      -0.029100
     16 C16          1.1850    -1.7520    -2.9260 c6         1 E44      -0.097400
     17 C17          0.3410    -0.4970    -2.7730 c6         1 E44       0.223800
     18 N1          -3.7500    -0.1580     0.0780 nb         1 E44      -0.714000
     19 N2          -0.5040    -1.3160     1.2860 nb         1 E44      -0.624000
     20 N3           0.1180    -0.2910    -1.3430 nh         1 E44      -0.637700
     21 N4          -2.1230     0.0490    -1.6310 nb         1 E44      -0.800000
     22 CL1         -4.5680     0.5870    -2.2520 cl         1 E44      -0.137000
     23 H1          -4.1320    -0.8910     2.5680 ha         1 E44       0.161000
     24 H2          -2.3530    -1.8750     4.0230 ha         1 E44       0.147000
     25 H3          -0.0700    -2.1730     3.0870 h4         1 E44       0.026100
     26 H4           0.4370     1.3320     0.7580 ha         1 E44       0.136000
     27 H5           2.4640     1.7010     2.0250 ha         1 E44       0.137000
     28 H6           4.6690     2.3650     2.3430 h1         1 E44       0.040367
     29 H7           4.2510     0.9920     3.3920 h1         1 E44       0.040367
     30 H8           5.9400     1.2880     2.9450 h1         1 E44       0.040367
     31 H9           4.5600    -0.9860    -0.5850 ha         1 E44       0.145000
     32 H10          3.2400    -1.1200    -2.9280 hc         1 E44       0.054700
     33 H11          2.9590    -2.5640    -1.9920 hc         1 E44       0.054700
     34 H12          1.3290    -1.9690    -3.9860 hc         1 E44       0.055200
     35 H13          0.6320    -2.5930    -2.5020 hc         1 E44       0.055200
     36 H14          0.8460     0.3760    -3.1930 h1         1 E44       0.072200
     37 H15         -0.6170    -0.6040    -3.2730 h1         1 E44       0.072200
     38 O1           4.8450     0.4840     1.4590 os         1 E44      -0.318900
@<TRIPOS>BOND
     1     1    18 ar  
     2     1    21 ar  
     3     1    22 1   
     4     2     3 ar  
     5     2     6 ar  
     6     2    18 ar  
     7     3     4 ar  
     8     3    23 1   
     9     4     5 ar  
    10     4    24 1   
    11     5    19 ar  
    12     5    25 1   
    13     6     7 ar  
    14     6    19 ar  
    15     7    20 1   
    16     7    21 ar  
    17     8     9 ar  
    18     8    14 ar  
    19     8    20 1   
    20     9    10 ar  
    21     9    26 1   
    22    10    11 ar  
    23    10    27 1   
    24    11    13 ar  
    25    11    38 1   
    26    12    28 1   
    27    12    29 1   
    28    12    30 1   
    29    12    38 1   
    30    13    14 ar  
    31    13    31 1   
    32    14    15 1   
    33    15    16 1   
    34    15    32 1   
    35    15    33 1   
    36    16    17 1   
    37    16    34 1   
    38    16    35 1   
    39    17    20 1   
    40    17    36 1   
    41    17    37 1   
@<TRIPOS>SUBSTRUCTURE
     1 E44         1 TEMP              0 ****  ****    0 ROOT
