@<TRIPOS>MOLECULE
E45
   18    18     1     0     0
SMALL
abcg2


@<TRIPOS>ATOM
      1 C3           1.7820    10.6900    -3.9650 cc         1 E45       0.629300
      2 C4           3.4000    10.9820    -2.5350 cd         1 E45       0.707300
      3 C1           1.2100    10.6630    -5.3530 c3         1 E45      -0.081000
      4 C2          -0.2110    10.1190    -5.4000 c3         1 E45      -0.083600
      5 N            1.0480    10.4460    -2.9190 nd         1 E45      -0.520100
      6 C            1.2870    12.0600    -5.9740 c3         1 E45      -0.083600
      7 N1           4.6150    11.2070    -2.0340 nv         1 E45      -1.060900
      8 N2           3.1000    10.9920    -3.8060 nc         1 E45      -0.777000
      9 S            2.0120    10.5910    -1.5620 ss         1 E45      -0.041300
     10 H3           1.8560    10.0020    -5.9410 hc         1 E45       0.067700
     11 H6          -0.2770     9.1120    -4.9880 hc         1 E45       0.040700
     12 H4          -0.9000    10.7550    -4.8430 hc         1 E45       0.040700
     13 H5          -0.5570    10.0800    -6.4330 hc         1 E45       0.040700
     14 H1           2.3080    12.4410    -5.9840 hc         1 E45       0.040700
     15 H2           0.9280    12.0340    -7.0030 hc         1 E45       0.040700
     16 H            0.6660    12.7660    -5.4210 hc         1 E45       0.040700
     17 H8           5.3350    11.5530    -2.6470 hn         1 E45       0.499500
     18 H7           4.7620    11.3250    -1.0460 hn         1 E45       0.499500
@<TRIPOS>BOND
     1     1     3 1   
     2     1     5 2   
     3     1     8 1   
     4     2     7 1   
     5     2     8 2   
     6     2     9 1   
     7     3     4 1   
     8     3     6 1   
     9     3    10 1   
    10     4    11 1   
    11     4    12 1   
    12     4    13 1   
    13     5     9 1   
    14     6    14 1   
    15     6    15 1   
    16     6    16 1   
    17     7    17 1   
    18     7    18 1   
@<TRIPOS>SUBSTRUCTURE
     1 E45         1 TEMP              0 ****  ****    0 ROOT
