@<TRIPOS>MOLECULE
E45
   18    18     1     0     0
SMALL
No Charge or Current Charge


@<TRIPOS>ATOM
      1 C3           1.8260    11.0300    -3.9330 cc         1 E45       0.629300
      2 C4           3.3260    10.8450    -2.4360 cd         1 E45       0.707300
      3 C1           1.2980    10.8890    -5.3490 c3         1 E45      -0.081000
      4 C2           0.1120     9.8980    -5.4380 c3         1 E45      -0.083600
      5 N            1.0580    11.5220    -2.9620 nd         1 E45      -0.520100
      6 C            0.9410    12.2570    -5.9810 c3         1 E45      -0.083600
      7 N1           4.5340    10.5510    -1.9550 nv         1 E45      -1.060900
      8 N2           3.1200    10.6350    -3.6930 nc         1 E45      -0.777000
      9 S            1.9710    11.5260    -1.5650 ss         1 E45      -0.041300
     10 H3           2.1000    10.4650    -5.9660 hc         1 E45       0.067700
     11 H6           0.3950     8.9210    -5.0280 hc         1 E45       0.040700
     12 H4          -0.7540    10.2690    -4.8750 hc         1 E45       0.040700
     13 H5          -0.1960     9.7530    -6.4810 hc         1 E45       0.040700
     14 H1           1.8050    12.9320    -5.9510 hc         1 E45       0.040700
     15 H2           0.6420    12.1350    -7.0290 hc         1 E45       0.040700
     16 H            0.1140    12.7350    -5.4420 hc         1 E45       0.040700
     17 H8           5.2480    10.4250    -2.6630 hn         1 E45       0.499500
     18 H7           4.8240    11.0280    -1.1080 hn         1 E45       0.499500
@<TRIPOS>BOND
     1     1     3 1   
     2     1     5 2   
     3     1     8 1   
     4     2     7 1   
     5     2     8 2   
     6     2     9 1   
     7     3     4 1   
     8     3     6 1   
     9     3    10 1   
    10     4    11 1   
    11     4    12 1   
    12     4    13 1   
    13     5     9 1   
    14     6    14 1   
    15     6    15 1   
    16     6    16 1   
    17     7    17 1   
    18     7    18 1   
@<TRIPOS>SUBSTRUCTURE
     1 E45         1 TEMP              0 ****  ****    0 ROOT
