@<TRIPOS>MOLECULE
E46
   47    50     1     0     0
SMALL
No Charge or Current Charge


@<TRIPOS>ATOM
      1 FAA        -44.5120    -3.3150     2.1330 f          1 E46      -0.107333
      2 CBB        -45.4830    -3.4810     1.2070 c3         1 E46       0.501000
      3 FAB        -46.6450    -3.6300     1.8800 f          1 E46      -0.107333
      4 FAC        -45.2480    -4.6480     0.5630 f          1 E46      -0.107333
      5 OAT        -45.5630    -2.3660     0.2950 os         1 E46      -0.401100
      6 CAU        -44.5350    -1.9760    -0.5450 ca         1 E46       0.098100
      7 CAI        -43.2660    -2.5990    -0.5660 ca         1 E46      -0.107000
      8 CAE        -44.7900    -0.9040    -1.4170 ca         1 E46      -0.102000
      9 CAD        -43.7990    -0.4550    -2.3060 ca         1 E46      -0.091000
     10 CAF        -42.5400    -1.0780    -2.3260 ca         1 E46      -0.094000
     11 CAW        -42.2680    -2.1500    -1.4550 ca         1 E46       0.041800
     12 NBA        -41.0190    -2.7650    -1.4730 na         1 E46       0.028100
     13 NAP        -40.6030    -3.4800    -2.5850 nc         1 E46      -0.165400
     14 NAO        -39.4600    -4.0780    -2.2610 nd         1 E46      -0.182400
     15 CAX        -39.2000    -3.7530    -0.9340 ca         1 E46      -0.087600
     16 CAH        -38.1200    -4.1610    -0.1430 ca         1 E46       0.053000
     17 CAG        -38.1010    -3.6840     1.1810 ca         1 E46      -0.249000
     18 CAY        -40.1670    -2.9340    -0.4150 ca         1 E46       0.416500
     19 NAQ        -40.1650    -2.4600     0.8510 nb         1 E46      -0.771000
     20 CAV        -39.1390    -2.8460     1.6210 ca         1 E46       0.660900
     21 NAS        -39.1420    -2.3510     2.9040 nu         1 E46      -0.930100
     22 CAN        -40.2530    -1.6950     3.6200 c3         1 E46       0.238800
     23 CAZ        -41.3860    -2.6880     4.0240 c6         1 E46      -0.092700
     24 CAL        -42.6040    -1.9300     4.6360 c6         1 E46      -0.106900
     25 CAM        -40.9160    -3.7920     5.0140 c6         1 E46      -0.106900
     26 CAK        -42.0530    -4.7990     5.3540 c6         1 E46       0.150800
     27 NAR        -43.4130    -4.2690     5.0630 n7         1 E46      -0.846400
     28 CAJ        -43.5640    -2.8480     5.4460 c6         1 E46       0.150800
     29 HAI        -43.0320    -3.4280     0.0940 ha         1 E46       0.163000
     30 HAE        -45.7640    -0.4210    -1.4040 ha         1 E46       0.139000
     31 HAD        -44.0070     0.3750    -2.9790 ha         1 E46       0.129000
     32 HAF        -41.7740    -0.7270    -3.0160 ha         1 E46       0.146000
     33 HAH        -37.3390    -4.8110    -0.5320 ha         1 E46       0.139000
     34 HAG        -37.2930    -3.9590     1.8510 ha         1 E46       0.126000
     35 HAS        -38.3460    -2.6470     3.4620 hn         1 E46       0.499000
     36 HAN1       -39.8730    -1.2220     4.5370 h1         1 E46       0.059200
     37 HAN2       -40.6820    -0.8950     2.9990 h1         1 E46       0.059200
     38 HAZ        -41.7170    -3.1750     3.0960 hc         1 E46       0.063700
     39 HAL1       -42.2590    -1.1220     5.2960 hc         1 E46       0.043700
     40 HAL2       -43.1630    -1.4390     3.8280 hc         1 E46       0.043700
     41 HAM1       -40.0580    -4.3440     4.6070 hc         1 E46       0.043700
     42 HAM2       -40.5640    -3.3200     5.9410 hc         1 E46       0.043700
     43 HAJ1       -43.3490    -2.7420     6.5210 h1         1 E46       0.051950
     44 HAJ2       -44.6040    -2.5230     5.2900 h1         1 E46       0.051950
     45 HAK1       -41.9070    -5.7270     4.7810 h1         1 E46       0.051950
     46 HAK2       -41.9810    -5.0660     6.4200 h1         1 E46       0.051950
     47 HAR        -43.5590    -4.3180     4.0490 hn         1 E46       0.408000
@<TRIPOS>BOND
     1     1     2 1   
     2     2     3 1   
     3     2     4 1   
     4     2     5 1   
     5     5     6 1   
     6     6     7 ar  
     7     6     8 ar  
     8     7    11 ar  
     9     7    29 1   
    10     8     9 ar  
    11     8    30 1   
    12     9    10 ar  
    13     9    31 1   
    14    10    11 ar  
    15    10    32 1   
    16    11    12 1   
    17    12    13 1   
    18    12    18 1   
    19    13    14 2   
    20    14    15 1   
    21    15    16 ar  
    22    15    18 ar  
    23    16    17 ar  
    24    16    33 1   
    25    17    20 ar  
    26    17    34 1   
    27    18    19 ar  
    28    19    20 ar  
    29    20    21 1   
    30    21    22 1   
    31    21    35 1   
    32    22    23 1   
    33    22    36 1   
    34    22    37 1   
    35    23    24 1   
    36    23    25 1   
    37    23    38 1   
    38    24    28 1   
    39    24    39 1   
    40    24    40 1   
    41    25    26 1   
    42    25    41 1   
    43    25    42 1   
    44    26    27 1   
    45    26    45 1   
    46    26    46 1   
    47    27    28 1   
    48    27    47 1   
    49    28    43 1   
    50    28    44 1   
@<TRIPOS>SUBSTRUCTURE
     1 E46         1 TEMP              0 ****  ****    0 ROOT
