@<TRIPOS>MOLECULE
E46
   47    50     1     0     0
SMALL
abcg2


@<TRIPOS>ATOM
      1 FAA        -44.8660    -3.8710     1.6650 f          1 E46      -0.107333
      2 CBB        -45.6350    -2.7800     1.4630 c3         1 E46       0.501000
      3 FAB        -46.2440    -2.4860     2.6130 f          1 E46      -0.107333
      4 FAC        -46.5750    -3.1370     0.5660 f          1 E46      -0.107333
      5 OAT        -44.9290    -1.7010     1.0820 os         1 E46      -0.401100
      6 CAU        -44.2240    -1.7760    -0.1370 ca         1 E46       0.098100
      7 CAI        -42.9310    -2.2630    -0.1160 ca         1 E46      -0.107000
      8 CAE        -44.8280    -1.3020    -1.2890 ca         1 E46      -0.102000
      9 CAD        -44.0940    -1.3280    -2.4710 ca         1 E46      -0.091000
     10 CAF        -42.7910    -1.8070    -2.4900 ca         1 E46      -0.094000
     11 CAW        -42.2140    -2.2760    -1.3110 ca         1 E46       0.041800
     12 NBA        -40.8950    -2.7770    -1.3220 na         1 E46       0.028100
     13 NAP        -40.3410    -3.2820    -2.4770 nc         1 E46      -0.165400
     14 NAO        -39.1430    -3.6930    -2.2200 nd         1 E46      -0.182400
     15 CAX        -38.8710    -3.4750    -0.8990 ca         1 E46      -0.087600
     16 CAH        -37.7480    -3.7310    -0.0890 ca         1 E46       0.053000
     17 CAG        -37.8470    -3.3750     1.2270 ca         1 E46      -0.249000
     18 CAY        -39.9880    -2.8830    -0.3030 ca         1 E46       0.416500
     19 NAQ        -40.1160    -2.5120     0.9670 nb         1 E46      -0.771000
     20 CAV        -39.0450    -2.7600     1.7330 ca         1 E46       0.660900
     21 NAS        -39.1060    -2.4040     3.0330 nu         1 E46      -0.930100
     22 CAN        -40.2840    -1.8180     3.6510 c3         1 E46       0.238800
     23 CAZ        -41.4110    -2.8160     3.9260 c6         1 E46      -0.092700
     24 CAL        -42.6900    -2.0720     4.3480 c6         1 E46      -0.106900
     25 CAM        -41.0450    -3.8550     4.9830 c6         1 E46      -0.106900
     26 CAK        -42.1590    -4.9170     5.1010 c6         1 E46       0.150800
     27 NAR        -43.5090    -4.4060     4.7970 n7         1 E46      -0.846400
     28 CAJ        -43.6400    -2.9890     5.1480 c6         1 E46       0.150800
     29 HAI        -42.4910    -2.6150     0.8030 ha         1 E46       0.163000
     30 HAE        -45.8390    -0.9210    -1.2570 ha         1 E46       0.139000
     31 HAD        -44.5400    -0.9590    -3.3850 ha         1 E46       0.129000
     32 HAF        -42.2210    -1.8120    -3.4070 ha         1 E46       0.146000
     33 HAH        -36.8520    -4.1900    -0.4860 ha         1 E46       0.139000
     34 HAG        -37.0260    -3.5450     1.9120 ha         1 E46       0.126000
     35 HAS        -38.3240    -2.6400     3.6190 hn         1 E46       0.499000
     36 HAN1       -39.9620    -1.3580     4.5860 h1         1 E46       0.059200
     37 HAN2       -40.6580    -1.0240     3.0010 h1         1 E46       0.059200
     38 HAZ        -41.6110    -3.3430     2.9890 hc         1 E46       0.063700
     39 HAL1       -42.4280    -1.2030     4.9620 hc         1 E46       0.043700
     40 HAL2       -43.1950    -1.6900     3.4580 hc         1 E46       0.043700
     41 HAM1       -40.0980    -4.3430     4.7400 hc         1 E46       0.043700
     42 HAM2       -40.9020    -3.3470     5.9430 hc         1 E46       0.043700
     43 HAJ1       -43.4320    -2.8980     6.2180 h1         1 E46       0.051950
     44 HAJ2       -44.6760    -2.6810     5.0010 h1         1 E46       0.051950
     45 HAK1       -41.9610    -5.7420     4.4140 h1         1 E46       0.051950
     46 HAK2       -42.1560    -5.3320     6.1130 h1         1 E46       0.051950
     47 HAR        -43.6830    -4.5070     3.8040 hn         1 E46       0.408000
@<TRIPOS>BOND
     1     1     2 1   
     2     2     3 1   
     3     2     4 1   
     4     2     5 1   
     5     5     6 1   
     6     6     7 ar  
     7     6     8 ar  
     8     7    11 ar  
     9     7    29 1   
    10     8     9 ar  
    11     8    30 1   
    12     9    10 ar  
    13     9    31 1   
    14    10    11 ar  
    15    10    32 1   
    16    11    12 1   
    17    12    13 1   
    18    12    18 1   
    19    13    14 2   
    20    14    15 1   
    21    15    16 ar  
    22    15    18 ar  
    23    16    17 ar  
    24    16    33 1   
    25    17    20 ar  
    26    17    34 1   
    27    18    19 ar  
    28    19    20 ar  
    29    20    21 1   
    30    21    22 1   
    31    21    35 1   
    32    22    23 1   
    33    22    36 1   
    34    22    37 1   
    35    23    24 1   
    36    23    25 1   
    37    23    38 1   
    38    24    28 1   
    39    24    39 1   
    40    24    40 1   
    41    25    26 1   
    42    25    41 1   
    43    25    42 1   
    44    26    27 1   
    45    26    45 1   
    46    26    46 1   
    47    27    28 1   
    48    27    47 1   
    49    28    43 1   
    50    28    44 1   
@<TRIPOS>SUBSTRUCTURE
     1 E46         1 TEMP              0 ****  ****    0 ROOT
