@<TRIPOS>MOLECULE
E47
   40    43     1     0     0
SMALL
abcg2


@<TRIPOS>ATOM
      1 N1           3.5330    30.7510     4.2520 nh         1 E47      -0.777300
      2 N3           1.3350    32.4960     7.3420 nb         1 E47      -0.215000
      3 C4           2.8740    30.7960     1.8790 c6         1 E47       0.140600
      4 C5           2.9170    31.3500     5.3250 ca         1 E47       0.413900
      5 C6           1.4780    32.9820     6.1150 ca         1 E47       0.169900
      6 C7           2.1110    31.4300     7.5680 ca         1 E47       0.139500
      7 C8           2.9930    30.8260     6.6390 ca         1 E47      -0.213800
      8 C10          3.7300    29.8140     7.3660 cc         1 E47      -0.048400
      9 C13          6.2010    26.9750     6.9510 ca         1 E47      -0.320600
     10 C15          7.0450    28.9210     5.7850 ca         1 E47      -0.177000
     11 C17          6.3270    25.5930     7.3640 c          1 E47       0.596500
     12 O1           3.3290    29.4560     1.6420 os         1 E47      -0.466000
     13 C1           3.9690    28.8550     2.7700 c6         1 E47       0.140600
     14 C2           3.3590    29.2950     4.0850 c6         1 E47       0.173800
     15 C3           3.6610    31.4770     2.9820 c6         1 E47       0.173800
     16 N2           2.2030    32.4690     5.1170 nb         1 E47      -0.285000
     17 N4           2.2390    30.7770     8.7570 na         1 E47      -0.320400
     18 C9           3.2220    29.8210     8.6440 cd         1 E47      -0.158100
     19 C11          4.8990    29.0310     6.9470 ca         1 E47      -0.079800
     20 C12          5.0640    27.7070     7.3220 ca         1 E47      -0.021000
     21 C14          7.2030    27.5890     6.1670 ca         1 E47       0.221100
     22 C16          5.9200    29.6220     6.1760 ca         1 E47      -0.014000
     23 O2           8.3040    26.9210     5.7810 oh         1 E47      -0.538100
     24 H7           2.9890    31.3450     0.9430 h1         1 E47       0.055700
     25 H8           1.8100    30.7790     2.1400 h1         1 E47       0.055700
     26 H9           0.9240    33.8860     5.8840 h5         1 E47       0.049100
     27 H13          7.8150    29.3940     5.1900 ha         1 E47       0.138000
     28 H16          5.4960    25.1920     7.9660 h4         1 E47       0.004200
     29 H2           3.8520    27.7770     2.6620 h1         1 E47       0.055700
     30 H1           5.0400    29.0840     2.7630 h1         1 E47       0.055700
     31 H3           2.2920    29.0450     4.0940 h1         1 E47       0.066950
     32 H4           3.8360    28.7450     4.8890 h1         1 E47       0.066950
     33 H6           4.7180    31.5210     2.7060 h1         1 E47       0.066950
     34 H5           3.3010    32.4920     3.1140 h1         1 E47       0.066950
     35 H10          1.7560    31.0240     9.6060 hn         1 E47       0.367000
     36 H11          3.5270    29.2430     9.5000 h4         1 E47       0.221000
     37 H12          4.2960    27.2070     7.9010 ha         1 E47       0.114000
     38 H14          5.8160    30.6570     5.8760 ha         1 E47       0.133000
     39 H15          8.2360    26.0070     6.1460 ho         1 E47       0.512000
     40 O3           7.2850    24.8710     7.0830 o          1 E47      -0.566100
@<TRIPOS>BOND
     1     1     4 1   
     2     1    14 1   
     3     1    15 1   
     4     2     5 ar  
     5     2     6 ar  
     6     3    12 1   
     7     3    15 1   
     8     3    24 1   
     9     3    25 1   
    10     4     7 ar  
    11     4    16 ar  
    12     5    16 ar  
    13     5    26 1   
    14     6     7 ar  
    15     6    17 1   
    16     7     8 1   
    17     8    18 2   
    18     8    19 1   
    19     9    11 1   
    20     9    20 ar  
    21     9    21 ar  
    22    10    21 ar  
    23    10    22 ar  
    24    10    27 1   
    25    11    28 1   
    26    11    40 2   
    27    12    13 1   
    28    13    14 1   
    29    13    29 1   
    30    13    30 1   
    31    14    31 1   
    32    14    32 1   
    33    15    33 1   
    34    15    34 1   
    35    17    18 1   
    36    17    35 1   
    37    18    36 1   
    38    19    20 ar  
    39    19    22 ar  
    40    20    37 1   
    41    21    23 1   
    42    22    38 1   
    43    23    39 1   
@<TRIPOS>SUBSTRUCTURE
     1 E47         1 TEMP              0 ****  ****    0 ROOT
