@<TRIPOS>MOLECULE
E47
   40    43     1     0     0
SMALL
No Charge or Current Charge


@<TRIPOS>ATOM
      1 N1           3.1520    30.6640     4.3430 nh         1 E47      -0.777300
      2 N3           1.2980    32.5270     7.5980 nb         1 E47      -0.215000
      3 C4           4.1520    30.6070     1.9730 c6         1 E47       0.140600
      4 C5           2.5890    31.2980     5.4710 ca         1 E47       0.413900
      5 C6           1.1040    32.8510     6.3000 ca         1 E47       0.169900
      6 C7           2.1950    31.5530     7.8360 ca         1 E47       0.139500
      7 C8           2.8710    30.9370     6.8070 ca         1 E47      -0.213800
      8 C10          3.7700    29.9840     7.4040 cc         1 E47      -0.048400
      9 C13          6.1010    27.0900     6.6760 ca         1 E47      -0.320600
     10 C15          6.8100    29.0280     5.3790 ca         1 E47      -0.177000
     11 C17          6.2500    25.6580     7.1070 c          1 E47       0.596500
     12 O1           4.8550    29.4710     2.5170 os         1 E47      -0.466000
     13 C1           3.9650    28.5190     3.1510 c6         1 E47       0.140600
     14 C2           2.9450    29.1910     4.1330 c6         1 E47       0.173800
     15 C3           3.5150    31.4580     3.1160 c6         1 E47       0.173800
     16 N2           1.6990    32.2840     5.2260 nb         1 E47      -0.285000
     17 N4           2.5920    31.0080     9.0500 na         1 E47      -0.320400
     18 C9           3.5850    30.0370     8.7730 cd         1 E47      -0.158100
     19 C11          4.8630    29.2000     6.8340 ca         1 E47      -0.079800
     20 C12          5.0460    27.8570     7.2150 ca         1 E47      -0.021000
     21 C14          6.9820    27.6890     5.7530 ca         1 E47       0.221100
     22 C16          5.7560    29.7840     5.9170 ca         1 E47      -0.014000
     23 O2           8.0090    26.9800     5.2140 oh         1 E47      -0.538100
     24 H7           4.8470    31.2260     1.3890 h1         1 E47       0.055700
     25 H8           3.3660    30.2480     1.2920 h1         1 E47       0.055700
     26 H9           0.3850    33.6430     6.0970 h5         1 E47       0.049100
     27 H13          7.4910    29.4820     4.6650 ha         1 E47       0.138000
     28 H16          5.5040    25.2820     7.8410 h4         1 E47       0.004200
     29 H2           3.4140    27.9700     2.3740 h1         1 E47       0.055700
     30 H1           4.5740    27.7890     3.7020 h1         1 E47       0.055700
     31 H3           1.9340    29.0260     3.7330 h1         1 E47       0.066950
     32 H4           2.9800    28.6510     5.0880 h1         1 E47       0.066950
     33 H6           4.2370    32.2390     3.3950 h1         1 E47       0.066950
     34 H5           2.6310    31.9720     2.7090 h1         1 E47       0.066950
     35 H10          2.2500    31.2850     9.9650 hn         1 E47       0.367000
     36 H11          4.1110    29.5010     9.5600 h4         1 E47       0.221000
     37 H12          4.3560    27.4060     7.9260 ha         1 E47       0.114000
     38 H14          5.6300    30.8220     5.6210 ha         1 E47       0.133000
     39 H15          7.9510    26.0740     5.6070 ho         1 E47       0.512000
     40 O3           7.1420    24.9290     6.6800 o          1 E47      -0.566100
@<TRIPOS>BOND
     1     1     4 1   
     2     1    14 1   
     3     1    15 1   
     4     2     5 ar  
     5     2     6 ar  
     6     3    12 1   
     7     3    15 1   
     8     3    24 1   
     9     3    25 1   
    10     4     7 ar  
    11     4    16 ar  
    12     5    16 ar  
    13     5    26 1   
    14     6     7 ar  
    15     6    17 1   
    16     7     8 1   
    17     8    18 2   
    18     8    19 1   
    19     9    11 1   
    20     9    20 ar  
    21     9    21 ar  
    22    10    21 ar  
    23    10    22 ar  
    24    10    27 1   
    25    11    28 1   
    26    11    40 2   
    27    12    13 1   
    28    13    14 1   
    29    13    29 1   
    30    13    30 1   
    31    14    31 1   
    32    14    32 1   
    33    15    33 1   
    34    15    34 1   
    35    17    18 1   
    36    17    35 1   
    37    18    36 1   
    38    19    20 ar  
    39    19    22 ar  
    40    20    37 1   
    41    21    23 1   
    42    22    38 1   
    43    23    39 1   
@<TRIPOS>SUBSTRUCTURE
     1 E47         1 TEMP              0 ****  ****    0 ROOT
