@<TRIPOS>MOLECULE
E48
   59    64     1     0     0
SMALL
abcg2


@<TRIPOS>ATOM
      1 C2           4.2030     3.4190     0.7610 c3         1 E48      -0.105600
      2 C3           4.8890     0.5920    -1.1960 c5         1 E48       0.105300
      3 C4           3.8380    -0.2090    -1.9190 c6         1 E48       0.160600
      4 C5           2.6610    -0.7940     0.0410 c5         1 E48       0.371000
      5 C10         -5.1200     0.9830     0.2440 ca         1 E48       0.225400
      6 C11         -7.3020     1.6550     0.2290 cc         1 E48       0.706800
      7 C6           1.3050    -0.5330     0.6980 c3         1 E48       0.232800
      8 C7          -1.0350    -0.9200     0.0230 cc         1 E48       0.666700
      9 N1          -1.4780     0.3100     0.4330 na         1 E48      -0.360600
     10 C12         -6.8350    -0.5950    -0.5500 c          1 E48       0.592600
     11 N4          -7.6970     0.4400    -0.2650 ns         1 E48      -0.454400
     12 N3          -8.2900     2.5390     0.4930 nv         1 E48      -1.033200
     13 N2          -6.0680     1.9450     0.4800 nd         1 E48      -0.707100
     14 C13         -5.4420    -0.2950    -0.2720 ca         1 E48      -0.237600
     15 C9          -3.7810     1.2950     0.5240 ca         1 E48      -0.135000
     16 C14         -4.4630    -1.2660    -0.5160 ca         1 E48       0.013000
     17 C15         -3.1500    -0.9570    -0.2410 ca         1 E48       0.074400
     18 C8          -2.8390     0.3250     0.2750 ca         1 E48      -0.033200
     19 N5          -2.0020    -1.7040    -0.3820 nd         1 E48      -0.641100
     20 N            0.2680    -1.2570     0.0100 nu         1 E48      -0.883400
     21 O1           2.6190    -0.2140    -1.2070 os         1 E48      -0.402000
     22 C19          3.8080    -0.3380     0.9650 c5         1 E48       0.098300
     23 O4           4.0580    -1.4940     1.7260 os         1 E48      -0.462000
     24 C16          3.6850    -2.6500     0.9910 c5         1 E48       0.398000
     25 O3           2.8970    -2.1770    -0.0870 os         1 E48      -0.503000
     26 C20          5.0800     0.1930     0.2630 c5         1 E48       0.129300
     27 O            4.4890     1.9390    -1.0830 os         1 E48      -0.455000
     28 O5           5.5160     1.3960     0.8540 os         1 E48      -0.468000
     29 C1           5.1590     2.4990     0.0240 c5         1 E48       0.389000
     30 H1           3.2880     2.8940     1.0410 hc         1 E48       0.050867
     31 H2           4.6720     3.8020     1.6670 hc         1 E48       0.050867
     32 H3           3.9320     4.2740     0.1410 hc         1 E48       0.050867
     33 H4           5.8360     0.4950    -1.7430 h1         1 E48       0.062700
     34 H5           3.6250     0.2300    -2.8930 h1         1 E48       0.074200
     35 H6           4.2150    -1.2220    -2.0950 h1         1 E48       0.074200
     36 H7           1.3570    -0.8010     1.7600 h1         1 E48       0.053200
     37 H8           1.1160     0.5400     0.6510 h1         1 E48       0.053200
     38 H9          -0.9220     1.0710     0.7870 hn         1 E48       0.355000
     39 H10         -8.6810     0.2660    -0.4250 hn         1 E48       0.323500
     40 H11         -9.1670     2.4580     0.0050 hn         1 E48       0.485500
     41 H12         -7.9940     3.4850     0.6700 hn         1 E48       0.485500
     42 H13         -3.5210     2.2690     0.9160 ha         1 E48       0.131000
     43 H14         -4.7410    -2.2340    -0.9120 ha         1 E48       0.148000
     44 H16          0.4380    -2.2370    -0.1590 hn         1 E48       0.522000
     45 H17          3.4530     0.4380     1.6510 h1         1 E48       0.099700
     46 H20          5.8730    -0.5520     0.3640 h1         1 E48       0.091700
     47 C17          6.4270     3.2190    -0.4080 c3         1 E48      -0.105600
     48 C18          4.9020    -3.3690     0.4320 c3         1 E48      -0.108600
     49 C21          2.8610    -3.5500     1.8950 c3         1 E48      -0.108600
     50 H15          6.9680     3.5980     0.4600 hc         1 E48       0.050867
     51 H18          7.0950     2.5560    -0.9610 hc         1 E48       0.050867
     52 H19          6.1830     4.0690    -1.0450 hc         1 E48       0.050867
     53 H21          5.5370    -3.7240     1.2440 hc         1 E48       0.053033
     54 H22          4.5950    -4.2340    -0.1560 hc         1 E48       0.053033
     55 H23          5.4950    -2.7150    -0.2070 hc         1 E48       0.053033
     56 H24          1.9520    -3.0480     2.2300 hc         1 E48       0.053033
     57 H25          2.5760    -4.4600     1.3670 hc         1 E48       0.053033
     58 H26          3.4360    -3.8400     2.7740 hc         1 E48       0.053033
     59 O2          -7.2610    -1.6500    -0.9930 o          1 E48      -0.544000
@<TRIPOS>BOND
     1     1    29 1   
     2     1    30 1   
     3     1    31 1   
     4     1    32 1   
     5     2     3 1   
     6     2    26 1   
     7     2    27 1   
     8     2    33 1   
     9     3    21 1   
    10     3    34 1   
    11     3    35 1   
    12     4     7 1   
    13     4    21 1   
    14     4    22 1   
    15     4    25 1   
    16     5    13 1   
    17     5    14 ar  
    18     5    15 ar  
    19     6    11 1   
    20     6    12 1   
    21     6    13 2   
    22     7    20 1   
    23     7    36 1   
    24     7    37 1   
    25     8     9 1   
    26     8    19 2   
    27     8    20 1   
    28     9    18 1   
    29     9    38 1   
    30    10    11 1   
    31    10    14 1   
    32    10    59 2   
    33    11    39 1   
    34    12    40 1   
    35    12    41 1   
    36    14    16 ar  
    37    15    18 ar  
    38    15    42 1   
    39    16    17 ar  
    40    16    43 1   
    41    17    18 ar  
    42    17    19 1   
    43    20    44 1   
    44    22    23 1   
    45    22    26 1   
    46    22    45 1   
    47    23    24 1   
    48    24    25 1   
    49    24    48 1   
    50    24    49 1   
    51    26    28 1   
    52    26    46 1   
    53    27    29 1   
    54    28    29 1   
    55    29    47 1   
    56    47    50 1   
    57    47    51 1   
    58    47    52 1   
    59    48    53 1   
    60    48    54 1   
    61    48    55 1   
    62    49    56 1   
    63    49    57 1   
    64    49    58 1   
@<TRIPOS>SUBSTRUCTURE
     1 E48         1 TEMP              0 ****  ****    0 ROOT
