@<TRIPOS>MOLECULE
E48
   59    64     1     0     0
SMALL
No Charge or Current Charge


@<TRIPOS>ATOM
      1 C2           5.1670     3.4840     0.9360 c3         1 E48      -0.105600
      2 C3           4.9930     0.6650    -1.2980 c5         1 E48       0.105300
      3 C4           3.8570     0.0230    -2.1040 c6         1 E48       0.160600
      4 C5           2.6330    -0.5390    -0.0230 c5         1 E48       0.371000
      5 C10         -5.4500     0.6960     0.4370 ca         1 E48       0.225400
      6 C11         -7.6640     1.1710     0.3880 cc         1 E48       0.706800
      7 C6           1.2330    -0.2460     0.6300 c3         1 E48       0.232800
      8 C7          -1.1760    -0.7870     0.0620 cc         1 E48       0.666700
      9 N1          -1.7680     0.2330     0.7740 na         1 E48      -0.360600
     10 C12         -6.9990    -0.6680    -0.9560 c          1 E48       0.592600
     11 N4          -7.9350     0.1700    -0.4680 ns         1 E48      -0.454400
     12 N3          -8.7000     1.9000     0.7670 nv         1 E48      -1.033200
     13 N2          -6.5030     1.5090     0.8890 nd         1 E48      -0.707100
     14 C13         -5.6300    -0.3830    -0.4670 ca         1 E48      -0.237600
     15 C9          -4.1530     0.9810     0.9160 ca         1 E48      -0.135000
     16 C14         -4.5300    -1.1710    -0.8900 ca         1 E48       0.013000
     17 C15         -3.2570    -0.8590    -0.3940 ca         1 E48       0.074400
     18 C8          -3.0940     0.1810     0.4760 ca         1 E48      -0.033200
     19 N5          -2.0420    -1.4900    -0.6660 nd         1 E48      -0.641100
     20 N            0.1370    -1.0830     0.0900 nu         1 E48      -0.883400
     21 O1           2.6290     0.0160    -1.3620 os         1 E48      -0.402000
     22 C19          3.8290    -0.0620     0.8740 c5         1 E48       0.098300
     23 O4           3.9750    -1.2030     1.7640 os         1 E48      -0.462000
     24 C16          3.4930    -2.3950     1.0900 c5         1 E48       0.398000
     25 O3           2.8550    -1.9590    -0.1280 os         1 E48      -0.503000
     26 C20          5.2130     0.0770     0.1110 c5         1 E48       0.129300
     27 O            4.7670     2.0520    -0.9870 os         1 E48      -0.455000
     28 O5           5.9210     1.1560     0.7860 os         1 E48      -0.468000
     29 C1           5.7330     2.3760     0.0290 c5         1 E48       0.389000
     30 H1           4.1990     3.1930     1.3570 hc         1 E48       0.050867
     31 H2           5.8470     3.6960     1.7690 hc         1 E48       0.050867
     32 H3           5.0230     4.4150     0.3750 hc         1 E48       0.050867
     33 H4           5.9110     0.5810    -1.8960 h1         1 E48       0.062700
     34 H5           3.7050     0.5700    -3.0450 h1         1 E48       0.074200
     35 H6           4.1240    -1.0130    -2.3570 h1         1 E48       0.074200
     36 H7           1.3040    -0.3850     1.7160 h1         1 E48       0.053200
     37 H8           1.0060     0.8160     0.4660 h1         1 E48       0.053200
     38 H9          -1.2980     0.8690     1.3990 hn         1 E48       0.355000
     39 H10         -8.8850     0.0040    -0.7540 hn         1 E48       0.323500
     40 H11         -9.4590     1.9940     0.1050 hn         1 E48       0.485500
     41 H12         -8.4460     2.7470     1.2600 hn         1 E48       0.485500
     42 H13         -3.9840     1.8000     1.6090 ha         1 E48       0.131000
     43 H14         -4.6580    -2.0010    -1.5820 ha         1 E48       0.148000
     44 H16          0.3910    -1.8160    -0.5690 hn         1 E48       0.522000
     45 H17          3.5800     0.8380     1.4500 h1         1 E48       0.099700
     46 H20          5.8180    -0.8370     0.1090 h1         1 E48       0.091700
     47 C17          7.0760     2.7940    -0.6150 c3         1 E48      -0.105600
     48 C18          4.6690    -3.3260     0.7270 c3         1 E48      -0.108600
     49 C21          2.4840    -3.1210     2.0050 c3         1 E48      -0.108600
     50 H15          7.7820     3.1420     0.1480 hc         1 E48       0.050867
     51 H18          7.5530     1.9620    -1.1460 hc         1 E48       0.050867
     52 H19          6.9290     3.6110    -1.3300 hc         1 E48       0.050867
     53 H21          5.3560    -3.4410     1.5730 hc         1 E48       0.053033
     54 H22          4.3090    -4.3240     0.4520 hc         1 E48       0.053033
     55 H23          5.2400    -2.9450    -0.1270 hc         1 E48       0.053033
     56 H24          1.7250    -2.4420     2.4050 hc         1 E48       0.053033
     57 H25          1.9650    -3.9190     1.4600 hc         1 E48       0.053033
     58 H26          2.9930    -3.5800     2.8600 hc         1 E48       0.053033
     59 O2          -7.2760    -1.5730    -1.7270 o          1 E48      -0.544000
@<TRIPOS>BOND
     1     1    29 1   
     2     1    30 1   
     3     1    31 1   
     4     1    32 1   
     5     2     3 1   
     6     2    26 1   
     7     2    27 1   
     8     2    33 1   
     9     3    21 1   
    10     3    34 1   
    11     3    35 1   
    12     4     7 1   
    13     4    21 1   
    14     4    22 1   
    15     4    25 1   
    16     5    13 1   
    17     5    14 ar  
    18     5    15 ar  
    19     6    11 1   
    20     6    12 1   
    21     6    13 2   
    22     7    20 1   
    23     7    36 1   
    24     7    37 1   
    25     8     9 1   
    26     8    19 2   
    27     8    20 1   
    28     9    18 1   
    29     9    38 1   
    30    10    11 1   
    31    10    14 1   
    32    10    59 2   
    33    11    39 1   
    34    12    40 1   
    35    12    41 1   
    36    14    16 ar  
    37    15    18 ar  
    38    15    42 1   
    39    16    17 ar  
    40    16    43 1   
    41    17    18 ar  
    42    17    19 1   
    43    20    44 1   
    44    22    23 1   
    45    22    26 1   
    46    22    45 1   
    47    23    24 1   
    48    24    25 1   
    49    24    48 1   
    50    24    49 1   
    51    26    28 1   
    52    26    46 1   
    53    27    29 1   
    54    28    29 1   
    55    29    47 1   
    56    47    50 1   
    57    47    51 1   
    58    47    52 1   
    59    48    53 1   
    60    48    54 1   
    61    48    55 1   
    62    49    56 1   
    63    49    57 1   
    64    49    58 1   
@<TRIPOS>SUBSTRUCTURE
     1 E48         1 TEMP              0 ****  ****    0 ROOT
