@<TRIPOS>MOLECULE
E49
   37    38     1     0     0
SMALL
abcg2


@<TRIPOS>ATOM
      1 N1          -5.4780    -1.0460    -0.0630 nb         1 E49      -0.196000
      2 C2          -4.3370    -0.3740    -0.0740 ca         1 E49       0.226300
      3 N3          -4.1800     0.9350    -0.0370 nb         1 E49      -0.196000
      4 C4          -5.2930     1.6690     0.0260 ca         1 E49       0.144800
      5 C5          -6.5410     1.0640     0.0460 ca         1 E49      -0.230000
      6 C6          -6.5940    -0.3240    -0.0030 ca         1 E49       0.144800
      7 S7          -2.9300    -1.4250    -0.1400 ss         1 E49      -0.227300
      8 C8          -1.5930    -0.2120    -0.1410 c3         1 E49      -0.090400
      9 C9          -0.2810    -0.9490    -0.1100 c          1 E49       0.593700
     10 O10         -0.2410    -2.1580    -0.0970 o          1 E49      -0.489100
     11 C11         -5.1290     3.1520     0.0580 c3         1 E49      -0.151900
     12 C12         -7.8890    -1.0670     0.0160 c3         1 E49      -0.151900
     13 C13          0.9670    -0.1390    -0.0900 ca         1 E49      -0.190600
     14 C14          2.1860    -0.8040     0.0040 ca         1 E49       0.046000
     15 C15          3.3740    -0.0970     0.0260 ca         1 E49      -0.314500
     16 C16          3.3490     1.2960    -0.0550 ca         1 E49       0.216000
     17 C17          2.1410     1.9660    -0.1510 ca         1 E49      -0.136000
     18 C18          0.9560     1.2510    -0.1620 ca         1 E49      -0.015000
     19 S19          4.8970    -1.0150     0.2150 sy         1 E49       1.157600
     20 O20          5.6260    -0.4300     1.3230 o          1 E49      -0.519500
     21 O22          4.5280    -2.4180     0.2450 o          1 E49      -0.519500
     22 N23          5.7940    -0.7930    -1.1300 n8         1 E49      -1.016100
     23 H5          -7.4450     1.6550     0.1010 ha         1 E49       0.133000
     24 H8          -1.6500     0.4220    -1.0280 h1         1 E49       0.097700
     25 H8A         -1.6740     0.4460     0.7270 h1         1 E49       0.097700
     26 H11         -4.7810     3.5120    -0.9110 hc         1 E49       0.057533
     27 H11A        -6.0650     3.6550     0.2910 hc         1 E49       0.057533
     28 H11B        -4.3810     3.4390     0.7970 hc         1 E49       0.057533
     29 H12         -7.9450    -1.7080     0.8970 hc         1 E49       0.057533
     30 H12A        -8.7420    -0.3920     0.0270 hc         1 E49       0.057533
     31 H12B        -7.9680    -1.7140    -0.8590 hc         1 E49       0.057533
     32 H14          2.2020    -1.8830     0.0620 ha         1 E49       0.170000
     33 H17          2.1250     3.0450    -0.2160 ha         1 E49       0.138000
     34 H18          0.0300     1.8040    -0.2360 ha         1 E49       0.128000
     35 HN23         6.1700     0.1390    -1.2560 hn         1 E49       0.487500
     36 HN2A         5.3880    -1.1680    -1.9790 hn         1 E49       0.487500
     37 CL21         4.7970     2.2240    -0.0650 cl         1 E49      -0.169000
@<TRIPOS>BOND
     1     1     2 ar  
     2     1     6 ar  
     3     2     3 ar  
     4     2     7 1   
     5     3     4 ar  
     6     4     5 ar  
     7     4    11 1   
     8     5     6 ar  
     9     5    23 1   
    10     6    12 1   
    11     7     8 1   
    12     8     9 1   
    13     8    24 1   
    14     8    25 1   
    15     9    10 2   
    16     9    13 1   
    17    11    26 1   
    18    11    27 1   
    19    11    28 1   
    20    12    29 1   
    21    12    30 1   
    22    12    31 1   
    23    13    14 ar  
    24    13    18 ar  
    25    14    15 ar  
    26    14    32 1   
    27    15    16 ar  
    28    15    19 1   
    29    16    17 ar  
    30    16    37 1   
    31    17    18 ar  
    32    17    33 1   
    33    18    34 1   
    34    19    20 2   
    35    19    21 2   
    36    19    22 1   
    37    22    35 1   
    38    22    36 1   
@<TRIPOS>SUBSTRUCTURE
     1 E49         1 TEMP              0 ****  ****    0 ROOT
