@<TRIPOS>MOLECULE
E49
   37    38     1     0     0
SMALL
No Charge or Current Charge


@<TRIPOS>ATOM
      1 N1          -5.6780    -1.1060     0.0250 nb         1 E49      -0.196000
      2 C2          -4.4820    -0.4800     0.0100 ca         1 E49       0.226300
      3 N3          -4.2930     0.8570    -0.0330 nb         1 E49      -0.196000
      4 C4          -5.3950     1.6340    -0.0620 ca         1 E49       0.144800
      5 C5          -6.6820     1.0710    -0.0510 ca         1 E49      -0.230000
      6 C6          -6.7800    -0.3290    -0.0040 ca         1 E49       0.144800
      7 S7          -3.0350    -1.5350     0.0490 ss         1 E49      -0.227300
      8 C8          -1.5960    -0.3520     0.0150 c3         1 E49      -0.090400
      9 C9          -0.2160    -1.0350     0.0430 c          1 E49       0.593700
     10 O10         -0.1180    -2.2560     0.0860 o          1 E49      -0.489100
     11 C11         -5.1800     3.1350    -0.1160 c3         1 E49      -0.151900
     12 C12         -8.1240    -1.0330     0.0070 c3         1 E49      -0.151900
     13 C13          1.0280    -0.1680     0.0160 ca         1 E49      -0.190600
     14 C14          2.3030    -0.7780     0.0370 ca         1 E49       0.046000
     15 C15          3.4820    -0.0000     0.0160 ca         1 E49      -0.314500
     16 C16          3.3840     1.4070    -0.0370 ca         1 E49       0.216000
     17 C17          2.1200     2.0140    -0.0590 ca         1 E49      -0.136000
     18 C18          0.9490     1.2420    -0.0310 ca         1 E49      -0.015000
     19 S19          5.0660    -0.8400     0.0520 sy         1 E49       1.157600
     20 O20          6.0110    -0.1550     0.9300 o          1 E49      -0.519500
     21 O22          4.8810    -2.2880     0.1030 o          1 E49      -0.519500
     22 N23          5.6660    -0.5690    -1.4400 n8         1 E49      -1.016100
     23 H5          -7.5700     1.6970    -0.0800 ha         1 E49       0.133000
     24 H8          -1.6510     0.2550    -0.8960 h1         1 E49       0.097700
     25 H8A         -1.6570     0.3140     0.8850 h1         1 E49       0.097700
     26 H11         -4.9900     3.4630    -1.1450 hc         1 E49       0.057533
     27 H11A        -6.0590     3.6760     0.2520 hc         1 E49       0.057533
     28 H11B        -4.3240     3.4380     0.4980 hc         1 E49       0.057533
     29 H12         -8.1060    -1.9180     0.6540 hc         1 E49       0.057533
     30 H12A        -8.9170    -0.3720     0.3730 hc         1 E49       0.057533
     31 H12B        -8.3990    -1.3600    -1.0030 hc         1 E49       0.057533
     32 H14          2.3740    -1.8660     0.0730 ha         1 E49       0.170000
     33 H17          2.0470     3.0970    -0.1010 ha         1 E49       0.138000
     34 H18         -0.0080     1.7580    -0.0490 ha         1 E49       0.128000
     35 HN23         6.0490    -1.4870    -1.6540 hn         1 E49       0.487500
     36 HN2A         6.5020    -0.0410    -1.2010 hn         1 E49       0.487500
     37 Cl21         4.7920     2.4710    -0.1030 cl         1 E49      -0.169000
@<TRIPOS>BOND
     1     1     2 ar  
     2     1     6 ar  
     3     2     3 ar  
     4     2     7 1   
     5     3     4 ar  
     6     4     5 ar  
     7     4    11 1   
     8     5     6 ar  
     9     5    23 1   
    10     6    12 1   
    11     7     8 1   
    12     8     9 1   
    13     8    24 1   
    14     8    25 1   
    15     9    10 2   
    16     9    13 1   
    17    11    26 1   
    18    11    27 1   
    19    11    28 1   
    20    12    29 1   
    21    12    30 1   
    22    12    31 1   
    23    13    14 ar  
    24    13    18 ar  
    25    14    15 ar  
    26    14    32 1   
    27    15    16 ar  
    28    15    19 1   
    29    16    17 ar  
    30    16    37 1   
    31    17    18 ar  
    32    17    33 1   
    33    18    34 1   
    34    19    20 2   
    35    19    21 2   
    36    19    22 1   
    37    22    35 1   
    38    22    36 1   
@<TRIPOS>SUBSTRUCTURE
     1 E49         1 TEMP              0 ****  ****    0 ROOT
