@<TRIPOS>MOLECULE
E4A
   85    89     1     0     0
SMALL
No Charge or Current Charge


@<TRIPOS>ATOM
      1 C3          32.0450     6.3160    15.2200 c3         1 E4A       0.078700
      2 C5          33.0640     7.0180    16.1590 c3         1 E4A      -0.049100
      3 C8          32.5230     8.2810    16.8200 ca         1 E4A      -0.042300
      4 C11         31.5170     9.3770    18.7560 ca         1 E4A       0.140100
      5 C12         31.4770    10.5960    18.0470 ca         1 E4A      -0.193000
      6 C14         31.9600    10.6520    16.7270 ca         1 E4A      -0.069000
      7 C16         32.4750     9.4970    16.1140 ca         1 E4A      -0.130000
      8 C19         30.1640    10.2280    20.6360 c3         1 E4A       0.165600
      9 C22         29.3350     9.5260    21.7380 c3         1 E4A      -0.079400
     10 C25         28.6260     8.2190    21.2830 c3         1 E4A      -0.089400
     11 C28         27.7530     8.3850    20.0200 c3         1 E4A       0.221800
     12 C33         27.1560     6.7090    18.2380 ca         1 E4A       0.317000
     13 C34         28.3230     6.6970    17.4580 ca         1 E4A      -0.142000
     14 C36         28.2690     6.3580    16.0860 ca         1 E4A      -0.119600
     15 C37         27.0170     6.0350    15.5170 ca         1 E4A      -0.070000
     16 C39         25.8350     6.0180    16.2940 ca         1 E4A      -0.137600
     17 C40         25.9250     6.3560    17.6660 ca         1 E4A      -0.149000
     18 C42         24.5130     5.6480    15.6430 c          1 E4A       0.581700
     19 C44         23.2330     5.6320    16.4820 c3         1 E4A      -0.195100
     20 C48         29.5050     6.3500    15.2120 c          1 E4A       0.613700
     21 C50         32.5460     4.9060    14.7660 c3         1 E4A       0.164300
     22 C54         31.6010     4.1640    13.7830 c3         1 E4A       0.165800
     23 C59         31.5660     2.3110    12.1360 cx         1 E4A       0.186500
     24 C60         31.8920     0.8470    11.9790 cx         1 E4A      -0.143400
     25 C63         30.5870     1.2630    12.6090 cx         1 E4A      -0.143400
     26 C66         31.2830     3.1480    10.9150 ca         1 E4A      -0.043300
     27 C67         32.2960     3.3600     9.9600 ca         1 E4A      -0.082000
     28 C69         32.0570     4.1420     8.8110 ca         1 E4A      -0.079300
     29 C70         30.7830     4.7170     8.6270 ca         1 E4A      -0.109000
     30 C72         29.7690     4.5150     9.5780 ca         1 E4A      -0.116000
     31 C74         30.0170     3.7340    10.7180 ca         1 E4A      -0.115000
     32 C76         33.1590     4.3710     7.7740 c3         1 E4A      -0.012400
     33 C78         34.3540     5.1410     8.3800 c3         1 E4A      -0.086600
     34 C82         33.6070     3.0450     7.1210 c3         1 E4A      -0.086600
     35 C9          32.0500     8.2340    18.1450 ca         1 E4A      -0.151000
     36 N1          30.7180     6.2600    15.8650 ns         1 E4A      -0.501900
     37 N31         27.2110     7.0910    19.5770 nu         1 E4A      -0.975200
     38 N57         32.3070     3.0040    13.1650 n7         1 E4A      -0.847400
     39 O18         31.0150     9.2390    20.0310 os         1 E4A      -0.360100
     40 O43         24.4550     5.3600    14.4530 o          1 E4A      -0.516100
     41 O49         29.4380     6.4340    13.9940 o          1 E4A      -0.589100
     42 O52         33.8200     4.9920    14.1150 oh         1 E4A      -0.645000
     43 H1          31.9500     6.9410    14.3210 h1         1 E4A       0.097700
     44 H2          33.3810     6.3070    16.9320 hc         1 E4A       0.055200
     45 H3          33.9700     7.2610    15.5900 hc         1 E4A       0.055200
     46 H4          31.0800    11.5000    18.5010 ha         1 E4A       0.116000
     47 H5          31.9290    11.5900    16.1770 ha         1 E4A       0.115000
     48 H6          32.8370     9.5470    15.0900 ha         1 E4A       0.122000
     49 H7          30.7540    11.0510    21.0620 h1         1 E4A       0.038700
     50 H8          29.4700    10.6490    19.8970 h1         1 E4A       0.038700
     51 H9          29.9940     9.2960    22.5850 hc         1 E4A       0.053200
     52 H10         28.5840    10.2330    22.1120 hc         1 E4A       0.053200
     53 H11         28.0040     7.8460    22.1050 hc         1 E4A       0.054700
     54 H12         29.3840     7.4500    21.0920 hc         1 E4A       0.054700
     55 H13         28.3680     8.8110    19.2170 h1         1 E4A       0.041200
     56 H14         26.9360     9.0930    20.2190 h1         1 E4A       0.041200
     57 H15         29.2610     6.9780    17.9260 ha         1 E4A       0.128000
     58 H16         26.9670     5.7810    14.4590 ha         1 E4A       0.148000
     59 H17         25.0410     6.3700    18.2960 ha         1 E4A       0.110000
     60 H18         22.3500     5.3460    15.8990 hc         1 E4A       0.061033
     61 H19         23.3760     4.9680    17.3420 hc         1 E4A       0.061033
     62 H20         23.1010     6.6130    16.9530 hc         1 E4A       0.061033
     63 H21         32.6460     4.2780    15.6610 h1         1 E4A       0.024700
     64 H22         31.2910     4.8750    13.0050 h1         1 E4A       0.056200
     65 H23         30.6980     3.8380    14.3160 h1         1 E4A       0.056200
     66 H24         31.8570     0.4270    10.9770 hc         1 E4A       0.075950
     67 H25         32.6550     0.4170    12.6230 hc         1 E4A       0.075950
     68 H26         29.6800     1.1150    12.0290 hc         1 E4A       0.075950
     69 H27         30.4690     1.1160    13.6800 hc         1 E4A       0.075950
     70 H28         33.2740     2.9130    10.1210 ha         1 E4A       0.145000
     71 H29         30.5770     5.3250     7.7490 ha         1 E4A       0.107000
     72 H30         28.7900     4.9660     9.4320 ha         1 E4A       0.108000
     73 H31         29.2280     3.5890    11.4520 ha         1 E4A       0.106000
     74 H32         32.7600     4.9980     6.9670 hc         1 E4A       0.043700
     75 H33         34.0170     6.0890     8.8180 hc         1 E4A       0.035367
     76 H34         34.8460     4.5560     9.1660 hc         1 E4A       0.035367
     77 H35         35.0980     5.3690     7.6080 hc         1 E4A       0.035367
     78 H36         32.7480     2.5260     6.6790 hc         1 E4A       0.035367
     79 H37         34.3360     3.2340     6.3240 hc         1 E4A       0.035367
     80 H38         34.0710     2.3770     7.8570 hc         1 E4A       0.035367
     81 H39         32.0740     7.3000    18.7000 ha         1 E4A       0.119000
     82 H40         30.6800     6.1940    16.8730 hn         1 E4A       0.315500
     83 H41         26.4060     6.7710    20.1180 hn         1 E4A       0.474000
     84 H42         32.5190     2.3310    13.9110 hn         1 E4A       0.415000
     85 H44         33.7580     4.2660    13.4470 ho         1 E4A       0.439000
@<TRIPOS>BOND
     1     1     2 1   
     2     1    21 1   
     3     1    36 1   
     4     1    43 1   
     5     2     3 1   
     6     2    44 1   
     7     2    45 1   
     8     3     7 ar  
     9     3    35 ar  
    10     4     5 ar  
    11     4    35 ar  
    12     4    39 1   
    13     5     6 ar  
    14     5    46 1   
    15     6     7 ar  
    16     6    47 1   
    17     7    48 1   
    18     8     9 1   
    19     8    39 1   
    20     8    49 1   
    21     8    50 1   
    22     9    10 1   
    23     9    51 1   
    24     9    52 1   
    25    10    11 1   
    26    10    53 1   
    27    10    54 1   
    28    11    37 1   
    29    11    55 1   
    30    11    56 1   
    31    12    13 ar  
    32    12    17 ar  
    33    12    37 1   
    34    13    14 ar  
    35    13    57 1   
    36    14    15 ar  
    37    14    20 1   
    38    15    16 ar  
    39    15    58 1   
    40    16    17 ar  
    41    16    18 1   
    42    17    59 1   
    43    18    19 1   
    44    18    40 2   
    45    19    60 1   
    46    19    61 1   
    47    19    62 1   
    48    20    36 1   
    49    20    41 2   
    50    21    22 1   
    51    21    42 1   
    52    21    63 1   
    53    22    38 1   
    54    22    64 1   
    55    22    65 1   
    56    23    24 1   
    57    23    25 1   
    58    23    26 1   
    59    23    38 1   
    60    24    25 1   
    61    24    66 1   
    62    24    67 1   
    63    25    68 1   
    64    25    69 1   
    65    26    27 ar  
    66    26    31 ar  
    67    27    28 ar  
    68    27    70 1   
    69    28    29 ar  
    70    28    32 1   
    71    29    30 ar  
    72    29    71 1   
    73    30    31 ar  
    74    30    72 1   
    75    31    73 1   
    76    32    33 1   
    77    32    34 1   
    78    32    74 1   
    79    33    75 1   
    80    33    76 1   
    81    33    77 1   
    82    34    78 1   
    83    34    79 1   
    84    34    80 1   
    85    35    81 1   
    86    36    82 1   
    87    37    83 1   
    88    38    84 1   
    89    42    85 1   
@<TRIPOS>SUBSTRUCTURE
     1 E4A         1 TEMP              0 ****  ****    0 ROOT
