@<TRIPOS>MOLECULE
E4A
   85    89     1     0     0
SMALL
bcc


@<TRIPOS>ATOM
      1 C3          31.4650     6.4070    14.6420 c3         1 E4A       0.078700
      2 C5          32.6540     7.0520    15.3670 c3         1 E4A      -0.049100
      3 C8          32.2610     8.2960    16.1090 ca         1 E4A      -0.042300
      4 C11         31.7380     9.3920    18.2060 ca         1 E4A       0.140100
      5 C12         31.4410    10.5690    17.5270 ca         1 E4A      -0.211000
      6 C14         31.5530    10.5940    16.1400 ca         1 E4A      -0.087000
      7 C16         31.9560     9.4760    15.4310 ca         1 E4A      -0.148000
      8 C19         30.8560    10.1080    20.3210 c3         1 E4A       0.142400
      9 C22         30.3120     9.3070    21.4890 c3         1 E4A      -0.079400
     10 C25         29.4990     8.0840    21.0710 c3         1 E4A      -0.089400
     11 C28         28.2740     8.4370    20.2350 c3         1 E4A       0.221800
     12 C33         27.3320     6.7690    18.6490 ca         1 E4A       0.178600
     13 C34         28.3090     6.9340    17.6560 ca         1 E4A      -0.160000
     14 C36         28.0980     6.4350    16.3740 ca         1 E4A      -0.119600
     15 C37         26.9420     5.7410    16.0550 ca         1 E4A      -0.088000
     16 C39         25.9940     5.5080    17.0510 ca         1 E4A      -0.137600
     17 C40         26.1890     6.0210    18.3250 ca         1 E4A      -0.167000
     18 C42         24.7680     4.7250    16.7100 c          1 E4A       0.581700
     19 C44         23.7570     4.4670    17.7920 c3         1 E4A      -0.195100
     20 C48         29.0940     6.6690    15.2800 c          1 E4A       0.680700
     21 C50         31.8370     5.0350    14.0410 c3         1 E4A       0.141100
     22 C54         30.7740     4.5520    13.0660 c3         1 E4A       0.165800
     23 C59         30.2510     2.7380    11.5440 cx         1 E4A       0.186500
     24 C60         29.4980     1.4430    11.6570 cx         1 E4A      -0.143400
     25 C63         28.7380     2.7290    11.6050 cx         1 E4A      -0.143400
     26 C66         30.9090     3.0460    10.2330 ca         1 E4A      -0.043300
     27 C67         32.1860     3.5970    10.2050 ca         1 E4A      -0.100000
     28 C69         32.8380     3.8960     9.0080 ca         1 E4A      -0.079300
     29 C70         32.1900     3.6220     7.8100 ca         1 E4A      -0.127000
     30 C72         30.9170     3.0620     7.8170 ca         1 E4A      -0.134000
     31 C74         30.2790     2.7790     9.0130 ca         1 E4A      -0.133000
     32 C76         34.2220     4.5040     9.0280 c3         1 E4A      -0.012400
     33 C78         34.2260     5.8560     9.7420 c3         1 E4A      -0.086600
     34 C82         35.2350     3.5520     9.6650 c3         1 E4A      -0.086600
     35 C9          32.1490     8.2670    17.4900 ca         1 E4A      -0.169000
     36 N1          30.3450     6.2630    15.5480 ns         1 E4A      -0.568900
     37 N31         27.4540     7.2920    19.9040 nu         1 E4A      -0.781600
     38 N57         30.9940     3.1670    12.6920 n7         1 E4A      -0.792200
     39 O18         31.6660     9.2400    19.5420 os         1 E4A      -0.336900
     40 O43         24.6050     4.3080    15.5830 o          1 E4A      -0.516100
     41 O49         28.7480     7.1650    14.2180 o          1 E4A      -0.589100
     42 O52         33.0600     5.1030    13.3440 oh         1 E4A      -0.582800
     43 H1          31.1430     7.0730    13.8380 h1         1 E4A       0.097700
     44 H2          33.0950     6.3330    16.0650 hc         1 E4A       0.055200
     45 H3          33.4220     7.2830    14.6270 hc         1 E4A       0.055200
     46 H4          31.1380    11.4640    18.0540 ha         1 E4A       0.134000
     47 H5          31.3230    11.5110    15.6130 ha         1 E4A       0.133000
     48 H6          32.0370     9.5210    14.3510 ha         1 E4A       0.140000
     49 H7          31.4470    10.9590    20.6750 h1         1 E4A       0.038700
     50 H8          30.0350    10.5140    19.7220 h1         1 E4A       0.038700
     51 H9          31.1360     8.9960    22.1350 hc         1 E4A       0.053200
     52 H10         29.6910     9.9810    22.0870 hc         1 E4A       0.053200
     53 H11         29.1670     7.5590    21.9700 hc         1 E4A       0.054700
     54 H12         30.1270     7.3790    20.5200 hc         1 E4A       0.054700
     55 H13         28.5640     8.9430    19.3110 h1         1 E4A       0.041200
     56 H14         27.6560     9.1520    20.7850 h1         1 E4A       0.041200
     57 H15         29.2270     7.4680    17.8750 ha         1 E4A       0.146000
     58 H16         26.7860     5.3670    15.0530 ha         1 E4A       0.166000
     59 H17         25.4440     5.8700    19.0960 ha         1 E4A       0.128000
     60 H18         22.9100     3.9140    17.3920 hc         1 E4A       0.061033
     61 H19         24.1990     3.8880    18.6040 hc         1 E4A       0.061033
     62 H20         23.3950     5.4000    18.2260 hc         1 E4A       0.061033
     63 H21         31.9070     4.3190    14.8740 h1         1 E4A       0.024700
     64 H22         30.8220     5.1750    12.1680 h1         1 E4A       0.056200
     65 H23         29.7760     4.7100    13.4920 h1         1 E4A       0.056200
     66 H24         29.4850     0.7970    10.7880 hc         1 E4A       0.075950
     67 H25         29.5430     0.9100    12.6000 hc         1 E4A       0.075950
     68 H26         28.1700     2.9680    10.7140 hc         1 E4A       0.075950
     69 H27         28.2850     3.0830    12.5240 hc         1 E4A       0.075950
     70 H28         32.6770     3.8010    11.1480 ha         1 E4A       0.163000
     71 H29         32.6770     3.8440     6.8680 ha         1 E4A       0.125000
     72 H30         30.4180     2.8470     6.8810 ha         1 E4A       0.126000
     73 H31         29.2870     2.3430     8.9850 ha         1 E4A       0.124000
     74 H32         34.5250     4.6720     7.9890 hc         1 E4A       0.043700
     75 H33         33.5370     6.5580     9.2700 hc         1 E4A       0.035367
     76 H34         33.9320     5.7510    10.7890 hc         1 E4A       0.035367
     77 H35         35.2230     6.3000     9.7190 hc         1 E4A       0.035367
     78 H36         35.2630     2.5940     9.1460 hc         1 E4A       0.035367
     79 H37         36.2390     3.9790     9.6330 hc         1 E4A       0.035367
     80 H38         34.9910     3.3600    10.7110 hc         1 E4A       0.035367
     81 H39         32.3780     7.3560    18.0330 ha         1 E4A       0.137000
     82 H40         30.5170     5.8090    16.4330 hn         1 E4A       0.315500
     83 H41         26.6640     7.1460    20.5100 hn         1 E4A       0.418800
     84 H42         30.8040     2.5640    13.4820 hn         1 E4A       0.359800
     85 H44         33.7860     5.0090    13.9660 ho         1 E4A       0.400000
@<TRIPOS>BOND
     1     1     2 1   
     2     1    21 1   
     3     1    36 1   
     4     1    43 1   
     5     2     3 1   
     6     2    44 1   
     7     2    45 1   
     8     3     7 ar  
     9     3    35 ar  
    10     4     5 ar  
    11     4    35 ar  
    12     4    39 1   
    13     5     6 ar  
    14     5    46 1   
    15     6     7 ar  
    16     6    47 1   
    17     7    48 1   
    18     8     9 1   
    19     8    39 1   
    20     8    49 1   
    21     8    50 1   
    22     9    10 1   
    23     9    51 1   
    24     9    52 1   
    25    10    11 1   
    26    10    53 1   
    27    10    54 1   
    28    11    37 1   
    29    11    55 1   
    30    11    56 1   
    31    12    13 ar  
    32    12    17 ar  
    33    12    37 1   
    34    13    14 ar  
    35    13    57 1   
    36    14    15 ar  
    37    14    20 1   
    38    15    16 ar  
    39    15    58 1   
    40    16    17 ar  
    41    16    18 1   
    42    17    59 1   
    43    18    19 1   
    44    18    40 2   
    45    19    60 1   
    46    19    61 1   
    47    19    62 1   
    48    20    36 1   
    49    20    41 2   
    50    21    22 1   
    51    21    42 1   
    52    21    63 1   
    53    22    38 1   
    54    22    64 1   
    55    22    65 1   
    56    23    24 1   
    57    23    25 1   
    58    23    26 1   
    59    23    38 1   
    60    24    25 1   
    61    24    66 1   
    62    24    67 1   
    63    25    68 1   
    64    25    69 1   
    65    26    27 ar  
    66    26    31 ar  
    67    27    28 ar  
    68    27    70 1   
    69    28    29 ar  
    70    28    32 1   
    71    29    30 ar  
    72    29    71 1   
    73    30    31 ar  
    74    30    72 1   
    75    31    73 1   
    76    32    33 1   
    77    32    34 1   
    78    32    74 1   
    79    33    75 1   
    80    33    76 1   
    81    33    77 1   
    82    34    78 1   
    83    34    79 1   
    84    34    80 1   
    85    35    81 1   
    86    36    82 1   
    87    37    83 1   
    88    38    84 1   
    89    42    85 1   
@<TRIPOS>SUBSTRUCTURE
     1 E4A         1 TEMP              0 ****  ****    0 ROOT
