@<TRIPOS>MOLECULE
E4B
   22    22     1     0     0
SMALL
No Charge or Current Charge


@<TRIPOS>ATOM
      1 C1           4.3230     1.2810    -0.0660 c3         1 E4B      -0.098100
      2 C6           3.5570    -0.0510    -0.0350 c3         1 E4B       0.169600
      3 O1           2.1540     0.2610     0.0020 os         1 E4B      -0.449100
      4 C7           1.2600    -0.7800     0.0350 c          1 E4B       0.616700
      5 O2           1.5950    -1.9580     0.0340 o          1 E4B      -0.498000
      6 C9          -0.1840    -0.3390     0.0730 ca         1 E4B      -0.185600
      7 C4          -1.2110    -1.3080     0.1090 ca         1 E4B      -0.013500
      8 C2          -2.5610    -0.9150     0.1440 ca         1 E4B      -0.197000
      9 C8          -2.8970     0.4460     0.1440 ca         1 E4B       0.171100
     10 O3          -4.2010     0.8340     0.1780 oh         1 E4B      -0.528100
     11 C3          -1.8870     1.4160     0.1080 ca         1 E4B      -0.197000
     12 C5          -0.5350     1.0310     0.0730 ca         1 E4B      -0.013500
     13 H1           4.0500     1.8630    -0.9540 hc         1 E4B       0.046033
     14 H2           4.1000     1.8760     0.8270 hc         1 E4B       0.046033
     15 H3           5.4030     1.0960    -0.0960 hc         1 E4B       0.046033
     16 H4           3.8050    -0.6380    -0.9300 h1         1 E4B       0.048200
     17 H5           3.8550    -0.6250     0.8530 h1         1 E4B       0.048200
     18 H6          -0.9670    -2.3690     0.1100 ha         1 E4B       0.133500
     19 H7          -3.3380    -1.6750     0.1720 ha         1 E4B       0.126000
     20 H8          -4.7620     0.0290     0.2000 ho         1 E4B       0.469000
     21 H9          -2.1490     2.4710     0.1080 ha         1 E4B       0.126000
     22 H10          0.2300     1.8040     0.0450 ha         1 E4B       0.133500
@<TRIPOS>BOND
     1     1     2 1   
     2     1    13 1   
     3     1    14 1   
     4     1    15 1   
     5     2     3 1   
     6     2    16 1   
     7     2    17 1   
     8     3     4 1   
     9     4     5 2   
    10     4     6 1   
    11     6     7 ar  
    12     6    12 ar  
    13     7     8 ar  
    14     7    18 1   
    15     8     9 ar  
    16     8    19 1   
    17     9    10 1   
    18     9    11 ar  
    19    10    20 1   
    20    11    12 ar  
    21    11    21 1   
    22    12    22 1   
@<TRIPOS>SUBSTRUCTURE
     1 E4B         1 TEMP              0 ****  ****    0 ROOT
