@<TRIPOS>MOLECULE
E4B
   22    22     1     0     0
SMALL
abcg2


@<TRIPOS>ATOM
      1 C1           4.2450     1.2630    -0.1390 c3         1 E4B      -0.098100
      2 C6           3.5080    -0.0450     0.0150 c3         1 E4B       0.169600
      3 O1           2.1060     0.2450     0.0430 os         1 E4B      -0.449100
      4 C7           1.2530    -0.7680     0.0700 c          1 E4B       0.616700
      5 O2           1.5940    -1.9280     0.0720 o          1 E4B      -0.498000
      6 C9          -0.1560    -0.3230     0.0950 ca         1 E4B      -0.185600
      7 C4          -1.1630    -1.2850     0.0650 ca         1 E4B      -0.013500
      8 C2          -2.4960    -0.9220     0.0840 ca         1 E4B      -0.197000
      9 C8          -2.8480     0.4250     0.1390 ca         1 E4B       0.171100
     10 O3          -4.1220     0.8450     0.1610 oh         1 E4B      -0.528100
     11 C3          -1.8490     1.3980     0.1740 ca         1 E4B      -0.197000
     12 C5          -0.5210     1.0240     0.1490 ca         1 E4B      -0.013500
     13 H1           3.9750     1.7660    -1.0670 hc         1 E4B       0.046033
     14 H2           4.0470     1.9380     0.6930 hc         1 E4B       0.046033
     15 H3           5.3170     1.0690    -0.1640 hc         1 E4B       0.046033
     16 H4           3.7330    -0.7170    -0.8150 h1         1 E4B       0.048200
     17 H5           3.7990    -0.5480     0.9400 h1         1 E4B       0.048200
     18 H6          -0.9060    -2.3350     0.0220 ha         1 E4B       0.133500
     19 H7          -3.2580    -1.6910     0.0540 ha         1 E4B       0.126000
     20 H8          -4.7300     0.1010     0.1410 ho         1 E4B       0.469000
     21 H9          -2.1220     2.4430     0.2250 ha         1 E4B       0.126000
     22 H10          0.2350     1.7950     0.1760 ha         1 E4B       0.133500
@<TRIPOS>BOND
     1     1     2 1   
     2     1    13 1   
     3     1    14 1   
     4     1    15 1   
     5     2     3 1   
     6     2    16 1   
     7     2    17 1   
     8     3     4 1   
     9     4     5 2   
    10     4     6 1   
    11     6     7 ar  
    12     6    12 ar  
    13     7     8 ar  
    14     7    18 1   
    15     8     9 ar  
    16     8    19 1   
    17     9    10 1   
    18     9    11 ar  
    19    10    20 1   
    20    11    12 ar  
    21    11    21 1   
    22    12    22 1   
@<TRIPOS>SUBSTRUCTURE
     1 E4B         1 TEMP              0 ****  ****    0 ROOT
