@<TRIPOS>MOLECULE
E4C
   59    62     1     0     0
SMALL
No Charge or Current Charge


@<TRIPOS>ATOM
      1 C20        -17.7740   -10.4820    23.8020 ca         1 E4C      -0.100500
      2 C28        -15.9500    -8.8890    23.7720 ca         1 E4C      -0.100500
      3 C21        -17.1250   -11.2110    24.8130 ca         1 E4C      -0.105500
      4 C27        -15.3000    -9.6160    24.7830 ca         1 E4C      -0.105500
      5 C19        -17.1930    -9.3160    23.2740 ca         1 E4C      -0.107300
      6 C22        -15.8710   -10.7920    25.3250 ca         1 E4C      -0.064300
      7 C16        -18.5100    -6.3510    23.2710 cc         1 E4C       0.792900
      8 C4         -17.4500    -4.6330    23.5390 cd         1 E4C       0.654500
      9 C14        -17.6500    -2.4660    25.2420 c6         1 E4C      -0.272700
     10 C6         -16.6950    -2.5090    24.0630 c2         1 E4C       0.469300
     11 C2         -18.8320    -3.4140    25.0710 c          1 E4C       0.553800
     12 C11        -12.3060    -0.6960    26.6090 c6         1 E4C      -0.076400
     13 C10        -13.0970    -2.0230    26.6770 c6         1 E4C      -0.075400
     14 C12        -13.2580     0.4720    26.2650 c6         1 E4C      -0.075400
     15 C9         -13.9090    -2.2540    25.3790 c6         1 E4C       0.165800
     16 C13        -14.0660     0.1710    24.9780 c6         1 E4C       0.165800
     17 C24        -15.8790   -12.8300    26.9270 c3         1 E4C      -0.082433
     18 C25        -14.9180   -10.6300    27.6660 c3         1 E4C      -0.082433
     19 C26        -13.7320   -12.0160    25.9070 c3         1 E4C      -0.082433
     20 C18        -17.9020    -8.5240    22.1810 c3         1 E4C       0.281100
     21 C7         -15.7080    -1.3490    23.9100 c3         1 E4C       0.116500
     22 C23        -15.1180   -11.5640    26.4420 c3         1 E4C       0.000300
     23 N15        -17.3750    -5.7510    22.8680 nc         1 E4C      -0.679000
     24 N29        -19.3070    -5.7290    24.1010 nd         1 E4C      -0.557800
     25 N3         -18.5710    -4.5720    24.3270 n          1 E4C      -0.092500
     26 N5         -16.5640    -3.6050    23.3580 nf         1 E4C      -0.610700
     27 N17        -18.8310    -7.5580    22.7800 nu         1 E4C      -0.914100
     28 N8         -14.8210    -1.1080    25.0930 n3         1 E4C      -0.730600
     29 O1         -19.9500    -3.1290    25.4790 o          1 E4C      -0.452000
     30 H1         -18.7370   -10.8260    23.4290 ha         1 E4C       0.109500
     31 H2         -15.4860    -7.9880    23.3780 ha         1 E4C       0.109500
     32 H3         -17.6200   -12.1030    25.1840 ha         1 E4C       0.110500
     33 H4         -14.3410    -9.2540    25.1430 ha         1 E4C       0.110500
     34 H5         -17.0770    -2.8300    26.1030 hc         1 E4C       0.117200
     35 H6         -18.0040    -1.4530    25.4710 hc         1 E4C       0.117200
     36 H8         -11.8020    -0.5060    27.5660 hc         1 E4C       0.042700
     37 H9         -13.7810    -2.0040    27.5360 hc         1 E4C       0.048950
     38 H10        -12.4090    -2.8630    26.8400 hc         1 E4C       0.048950
     39 H11        -12.6850     1.4000    26.1360 hc         1 E4C       0.048950
     40 H12        -13.9520     0.6440    27.0990 hc         1 E4C       0.048950
     41 H13        -14.4810    -3.1860    25.4920 h1         1 E4C       0.035200
     42 H14        -13.2120    -2.4030    24.5410 h1         1 E4C       0.035200
     43 H15        -13.3750     0.1300    24.1220 h1         1 E4C       0.035200
     44 H16        -14.7570     1.0070    24.7960 h1         1 E4C       0.035200
     45 H17        -15.3160   -13.3480    27.7140 hc         1 E4C       0.034922
     46 H18        -16.8590   -12.5680    27.3430 hc         1 E4C       0.034922
     47 H19        -16.0260   -13.5430    26.1060 hc         1 E4C       0.034922
     48 H20        -14.4170   -11.1580    28.4860 hc         1 E4C       0.034922
     49 H21        -14.3050    -9.7570    27.4140 hc         1 E4C       0.034922
     50 H22        -15.8850   -10.2670    28.0370 hc         1 E4C       0.034922
     51 H23        -13.1890   -12.5940    26.6650 hc         1 E4C       0.034922
     52 H24        -13.8480   -12.6470    25.0180 hc         1 E4C       0.034922
     53 H25        -13.1040   -11.1600    25.6340 hc         1 E4C       0.034922
     54 H26        -18.4520    -9.2190    21.5310 h1         1 E4C       0.063700
     55 H27        -17.1580    -8.0190    21.5490 h1         1 E4C       0.063700
     56 H28        -15.0970    -1.5230    23.0150 h1         1 E4C       0.065200
     57 H29        -16.3020    -0.4470    23.7070 h1         1 E4C       0.065200
     58 H30        -19.6550    -7.9270    23.2420 hn         1 E4C       0.498000
     59 H7         -11.5200    -0.7720    25.8450 hc         1 E4C       0.042700
@<TRIPOS>BOND
     1     1     3 ar  
     2     1     5 ar  
     3     1    30 1   
     4     2     4 ar  
     5     2     5 ar  
     6     2    31 1   
     7     3     6 ar  
     8     3    32 1   
     9     4     6 ar  
    10     4    33 1   
    11     5    20 1   
    12     6    22 1   
    13     7    23 1   
    14     7    24 2   
    15     7    27 1   
    16     8    23 2   
    17     8    25 1   
    18     8    26 1   
    19     9    10 1   
    20     9    11 1   
    21     9    34 1   
    22     9    35 1   
    23    10    21 1   
    24    10    26 2   
    25    11    25 1   
    26    11    29 2   
    27    12    13 1   
    28    12    14 1   
    29    12    36 1   
    30    12    59 1   
    31    13    15 1   
    32    13    37 1   
    33    13    38 1   
    34    14    16 1   
    35    14    39 1   
    36    14    40 1   
    37    15    28 1   
    38    15    41 1   
    39    15    42 1   
    40    16    28 1   
    41    16    43 1   
    42    16    44 1   
    43    17    22 1   
    44    17    45 1   
    45    17    46 1   
    46    17    47 1   
    47    18    22 1   
    48    18    48 1   
    49    18    49 1   
    50    18    50 1   
    51    19    22 1   
    52    19    51 1   
    53    19    52 1   
    54    19    53 1   
    55    20    27 1   
    56    20    54 1   
    57    20    55 1   
    58    21    28 1   
    59    21    56 1   
    60    21    57 1   
    61    24    25 1   
    62    27    58 1   
@<TRIPOS>SUBSTRUCTURE
     1 E4C         1 TEMP              0 ****  ****    0 ROOT
