@<TRIPOS>MOLECULE
E4C
   59    62     1     0     0
SMALL
abcg2


@<TRIPOS>ATOM
      1 C20        -17.6550    -9.2470    24.5320 ca         1 E4C      -0.100500
      2 C28        -16.2360    -9.9360    22.7490 ca         1 E4C      -0.100500
      3 C21        -16.7880    -9.8380    25.4450 ca         1 E4C      -0.105500
      4 C27        -15.3800   -10.5310    23.6600 ca         1 E4C      -0.105500
      5 C19        -17.3910    -9.2820    23.1710 ca         1 E4C      -0.107300
      6 C22        -15.6320   -10.4930    25.0340 ca         1 E4C      -0.064300
      7 C16        -18.6580    -6.4450    23.0840 cc         1 E4C       0.792900
      8 C4         -17.2550    -4.9270    23.3970 cd         1 E4C       0.654500
      9 C14        -17.4610    -2.5240    24.7150 c6         1 E4C      -0.272700
     10 C6         -16.2200    -3.0320    24.0500 c2         1 E4C       0.469300
     11 C2         -18.6850    -3.3930    24.6240 c          1 E4C       0.553800
     12 C11        -13.3670    -0.6790    27.7270 c6         1 E4C      -0.076400
     13 C10        -14.2640    -1.9100    27.7300 c6         1 E4C      -0.075400
     14 C12        -13.8340     0.3040    26.6600 c6         1 E4C      -0.075400
     15 C9         -14.3540    -2.5120    26.3380 c6         1 E4C       0.165800
     16 C13        -13.9400    -0.3770    25.3050 c6         1 E4C       0.165800
     17 C24        -15.1070   -11.0170    27.4590 c3         1 E4C      -0.082433
     18 C25        -13.2840   -10.4440    25.8700 c3         1 E4C      -0.082433
     19 C26        -14.4970   -12.6260    25.6730 c3         1 E4C      -0.082433
     20 C18        -18.3170    -8.6660    22.1460 c3         1 E4C       0.281100
     21 C7         -15.0230    -2.1290    24.0730 c3         1 E4C       0.116500
     22 C23        -14.6480   -11.1360    26.0060 c3         1 E4C       0.000300
     23 N15        -17.3580    -6.0950    22.8410 nc         1 E4C      -0.679000
     24 N29        -19.3600    -5.5590    23.7560 nd         1 E4C      -0.557800
     25 N3         -18.4490    -4.5730    23.9550 n          1 E4C      -0.092500
     26 N5         -16.1310    -4.1520    23.4400 nf         1 E4C      -0.610700
     27 N17        -19.1670    -7.6090    22.6350 nu         1 E4C      -0.914100
     28 N8         -14.8250    -1.5310    25.3700 n3         1 E4C      -0.730600
     29 O1         -19.7610    -3.1100    25.0840 o          1 E4C      -0.452000
     30 H1         -18.5430    -8.7490    24.9030 ha         1 E4C       0.109500
     31 H2         -15.9980    -9.9760    21.6920 ha         1 E4C       0.109500
     32 H3         -17.0360    -9.7740    26.4960 ha         1 E4C       0.110500
     33 H4         -14.4910   -11.0240    23.2850 ha         1 E4C       0.110500
     34 H5         -17.2490    -2.3330    25.7720 hc         1 E4C       0.117200
     35 H6         -17.7010    -1.5380    24.3040 hc         1 E4C       0.117200
     36 H8         -13.3570    -0.2050    28.7100 hc         1 E4C       0.042700
     37 H9         -15.2680    -1.6380    28.0690 hc         1 E4C       0.048950
     38 H10        -13.8880    -2.6650    28.4240 hc         1 E4C       0.048950
     39 H11        -13.1470     1.1490    26.5830 hc         1 E4C       0.048950
     40 H12        -14.8120     0.7110    26.9350 hc         1 E4C       0.048950
     41 H13        -15.0430    -3.3630    26.3530 h1         1 E4C       0.035200
     42 H14        -13.3690    -2.9150    26.0430 h1         1 E4C       0.035200
     43 H15        -12.9320    -0.6650    24.9620 h1         1 E4C       0.035200
     44 H16        -14.3380     0.3220    24.5660 h1         1 E4C       0.035200
     45 H17        -14.3790   -11.5000    28.1130 hc         1 E4C       0.034922
     46 H18        -15.1920    -9.9770    27.7790 hc         1 E4C       0.034922
     47 H19        -16.0700   -11.5020    27.6260 hc         1 E4C       0.034922
     48 H20        -12.5620   -10.8890    26.5590 hc         1 E4C       0.034922
     49 H21        -12.8800   -10.5380    24.8620 hc         1 E4C       0.034922
     50 H22        -13.3610    -9.3810    26.1040 hc         1 E4C       0.034922
     51 H23        -13.7860   -13.0960    26.3560 hc         1 E4C       0.034922
     52 H24        -15.4490   -13.1520    25.7680 hc         1 E4C       0.034922
     53 H25        -14.1270   -12.7860    24.6590 hc         1 E4C       0.034922
     54 H26        -18.9780    -9.4350    21.7410 h1         1 E4C       0.063700
     55 H27        -17.7280    -8.3020    21.3030 h1         1 E4C       0.063700
     56 H28        -14.1510    -2.6900    23.7050 h1         1 E4C       0.065200
     57 H29        -15.2210    -1.3330    23.3440 h1         1 E4C       0.065200
     58 H30        -20.0760    -7.8620    22.9860 hn         1 E4C       0.498000
     59 H7         -12.3360    -0.9830    27.5130 hc         1 E4C       0.042700
@<TRIPOS>BOND
     1     1     3 ar  
     2     1     5 ar  
     3     1    30 1   
     4     2     4 ar  
     5     2     5 ar  
     6     2    31 1   
     7     3     6 ar  
     8     3    32 1   
     9     4     6 ar  
    10     4    33 1   
    11     5    20 1   
    12     6    22 1   
    13     7    23 1   
    14     7    24 2   
    15     7    27 1   
    16     8    23 2   
    17     8    25 1   
    18     8    26 1   
    19     9    10 1   
    20     9    11 1   
    21     9    34 1   
    22     9    35 1   
    23    10    21 1   
    24    10    26 2   
    25    11    25 1   
    26    11    29 2   
    27    12    13 1   
    28    12    14 1   
    29    12    36 1   
    30    12    59 1   
    31    13    15 1   
    32    13    37 1   
    33    13    38 1   
    34    14    16 1   
    35    14    39 1   
    36    14    40 1   
    37    15    28 1   
    38    15    41 1   
    39    15    42 1   
    40    16    28 1   
    41    16    43 1   
    42    16    44 1   
    43    17    22 1   
    44    17    45 1   
    45    17    46 1   
    46    17    47 1   
    47    18    22 1   
    48    18    48 1   
    49    18    49 1   
    50    18    50 1   
    51    19    22 1   
    52    19    51 1   
    53    19    52 1   
    54    19    53 1   
    55    20    27 1   
    56    20    54 1   
    57    20    55 1   
    58    21    28 1   
    59    21    56 1   
    60    21    57 1   
    61    24    25 1   
    62    27    58 1   
@<TRIPOS>SUBSTRUCTURE
     1 E4C         1 TEMP              0 ****  ****    0 ROOT
