@<TRIPOS>MOLECULE
E4D
   62    66     1     0     0
SMALL
No Charge or Current Charge


@<TRIPOS>ATOM
      1 C1          -0.0450     1.4820    -2.3580 c6         1 E4D       0.086600
      2 C2          -1.2380     0.5750    -1.9790 c6         1 E4D       0.235600
      3 O3          -1.2310    -0.6700    -2.7090 os         1 E4D      -0.335100
      4 C4          -1.2170    -0.6800    -4.0900 ca         1 E4D       0.085100
      5 C5          -1.6480    -1.8540    -4.7320 ca         1 E4D      -0.082000
      6 C6          -1.6620    -1.9390    -6.1360 ca         1 E4D      -0.182000
      7 C7          -1.2360    -0.8460    -6.9040 ca         1 E4D       0.123100
      8 O8          -1.2460    -0.9200    -8.2660 oh         1 E4D      -0.533100
      9 C9          -0.7880     0.3260    -6.2730 ca         1 E4D      -0.109000
     10 C10         -0.7680     0.4200    -4.8680 ca         1 E4D      -0.128000
     11 S11         -0.1330     1.9290    -4.1400 ss         1 E4D      -0.145000
     12 C12          1.3310     0.9180    -1.9560 ca         1 E4D      -0.113300
     13 C13          1.9660    -0.0960    -2.7060 ca         1 E4D      -0.049500
     14 C14          3.2150    -0.6020    -2.3040 ca         1 E4D      -0.177500
     15 C15          3.8380    -0.1010    -1.1510 ca         1 E4D       0.144100
     16 O16          5.0470    -0.5880    -0.7550 oh         1 E4D      -0.534100
     17 C17          3.2150     0.9040    -0.4000 ca         1 E4D      -0.177500
     18 C18          1.9670     1.4130    -0.7990 ca         1 E4D      -0.049500
     19 C19         -1.2940     0.2750    -0.4740 ca         1 E4D      -0.129300
     20 C20         -2.1030     1.0640     0.3670 ca         1 E4D      -0.051000
     21 C21         -2.1510     0.8130     1.7500 ca         1 E4D      -0.179000
     22 C22         -1.3840    -0.2330     2.3070 ca         1 E4D       0.152100
     23 C23         -0.5780    -1.0180     1.4690 ca         1 E4D      -0.179000
     24 C24         -0.5300    -0.7700     0.0870 ca         1 E4D      -0.051000
     25 O25         -1.3880    -0.5240     3.6550 os         1 E4D      -0.323100
     26 C26         -2.1660     0.2350     4.6020 c3         1 E4D       0.163600
     27 C27         -1.9340    -0.3390     6.0280 c3         1 E4D       0.171800
     28 N28         -0.5290    -0.3320     6.5320 n3         1 E4D      -0.705600
     29 C29          0.0630     1.0350     6.6260 c6         1 E4D       0.168300
     30 C30          1.5510     0.9890     7.0530 c6         1 E4D      -0.074900
     31 C31          1.7250     0.2240     8.3850 c6         1 E4D      -0.075400
     32 C32          1.0740    -1.1740     8.2810 c6         1 E4D      -0.074900
     33 C33         -0.4020    -1.0650     7.8230 c6         1 E4D       0.168300
     34 H1          -0.1780     2.4320    -1.8240 h1         1 E4D       0.092700
     35 H2          -2.1620     1.1050    -2.2540 h1         1 E4D       0.062700
     36 H5          -1.9790    -2.7010    -4.1350 ha         1 E4D       0.129000
     37 H6          -2.0050    -2.8530    -6.6150 ha         1 E4D       0.117000
     38 HO8         -1.5840    -1.8040    -8.5260 ho         1 E4D       0.464000
     39 H9          -0.4470     1.1620    -6.8770 ha         1 E4D       0.139000
     40 H13          1.4980    -0.4990    -3.6000 ha         1 E4D       0.118500
     41 H14          3.6890    -1.3830    -2.8930 ha         1 E4D       0.121500
     42 H16          5.3280    -1.2770    -1.3950 ho         1 E4D       0.464000
     43 H17          3.6960     1.2900     0.4950 ha         1 E4D       0.121500
     44 H18          1.4910     2.1880    -0.2020 ha         1 E4D       0.118500
     45 H20         -2.6960     1.8760    -0.0490 ha         1 E4D       0.120000
     46 H21         -2.7850     1.4400     2.3700 ha         1 E4D       0.124500
     47 H23          0.0160    -1.8230     1.8940 ha         1 E4D       0.124500
     48 H24          0.1070    -1.3850    -0.5450 ha         1 E4D       0.120000
     49 H261        -3.2350     0.1610     4.3630 h1         1 E4D       0.033700
     50 H262        -1.8860     1.2950     4.5780 h1         1 E4D       0.033700
     51 H271        -2.3120    -1.3710     6.0240 h1         1 E4D       0.038700
     52 H272        -2.5730     0.2230     6.7220 h1         1 E4D       0.038700
     53 H291         0.0060     1.5500     5.6570 h1         1 E4D       0.027450
     54 H292        -0.5010     1.6430     7.3500 h1         1 E4D       0.027450
     55 H301         1.9410     2.0100     7.1530 hc         1 E4D       0.047700
     56 H302         2.1420     0.5020     6.2650 hc         1 E4D       0.047700
     57 H311         1.2600     0.7910     9.2030 hc         1 E4D       0.038200
     58 H312         2.7920     0.1280     8.6310 hc         1 E4D       0.038200
     59 H321         1.1260    -1.6860     9.2510 hc         1 E4D       0.047700
     60 H322         1.6330    -1.7930     7.5670 hc         1 E4D       0.047700
     61 H331        -0.9830    -0.5560     8.6060 h1         1 E4D       0.027450
     62 H332        -0.8120    -2.0810     7.7250 h1         1 E4D       0.027450
@<TRIPOS>BOND
     1     1     2 1   
     2     1    11 1   
     3     1    12 1   
     4     1    34 1   
     5     2     3 1   
     6     2    19 1   
     7     2    35 1   
     8     3     4 1   
     9     4     5 ar  
    10     4    10 ar  
    11     5     6 ar  
    12     5    36 1   
    13     6     7 ar  
    14     6    37 1   
    15     7     8 1   
    16     7     9 ar  
    17     8    38 1   
    18     9    10 ar  
    19     9    39 1   
    20    10    11 1   
    21    12    13 ar  
    22    12    18 ar  
    23    13    14 ar  
    24    13    40 1   
    25    14    15 ar  
    26    14    41 1   
    27    15    16 1   
    28    15    17 ar  
    29    16    42 1   
    30    17    18 ar  
    31    17    43 1   
    32    18    44 1   
    33    19    20 ar  
    34    19    24 ar  
    35    20    21 ar  
    36    20    45 1   
    37    21    22 ar  
    38    21    46 1   
    39    22    23 ar  
    40    22    25 1   
    41    23    24 ar  
    42    23    47 1   
    43    24    48 1   
    44    25    26 1   
    45    26    27 1   
    46    26    49 1   
    47    26    50 1   
    48    27    28 1   
    49    27    51 1   
    50    27    52 1   
    51    28    29 1   
    52    28    33 1   
    53    29    30 1   
    54    29    53 1   
    55    29    54 1   
    56    30    31 1   
    57    30    55 1   
    58    30    56 1   
    59    31    32 1   
    60    31    57 1   
    61    31    58 1   
    62    32    33 1   
    63    32    59 1   
    64    32    60 1   
    65    33    61 1   
    66    33    62 1   
@<TRIPOS>SUBSTRUCTURE
     1 E4D         1 TEMP              0 ****  ****    0 ROOT
