@<TRIPOS>MOLECULE
E4D
   62    66     1     0     0
SMALL
bcc


@<TRIPOS>ATOM
      1 C1          -0.2000     1.4320    -2.2030 c6         1 E4D       0.038700
      2 C2          -1.3270     0.4190    -1.9240 c6         1 E4D       0.212400
      3 O3          -1.0990    -0.7940    -2.6040 os         1 E4D      -0.311900
      4 C4          -1.0830    -0.7630    -3.9620 ca         1 E4D       0.085100
      5 C5          -1.4330    -1.9300    -4.6290 ca         1 E4D      -0.100000
      6 C6          -1.4200    -1.9970    -6.0110 ca         1 E4D      -0.200000
      7 C7          -1.0620    -0.8750    -6.7540 ca         1 E4D       0.123100
      8 O8          -1.0410    -0.8700    -8.1040 oh         1 E4D      -0.494100
      9 C9          -0.7050     0.2930    -6.0960 ca         1 E4D      -0.127000
     10 C10         -0.7080     0.3570    -4.7040 ca         1 E4D      -0.001100
     11 S11         -0.2340     1.8810    -3.9660 ss         1 E4D      -0.224000
     12 C12          1.1460     0.9810    -1.7110 ca         1 E4D      -0.113300
     13 C13          1.9520     0.0970    -2.4190 ca         1 E4D      -0.067500
     14 C14          3.1630    -0.3400    -1.9040 ca         1 E4D      -0.195500
     15 C15          3.5950     0.1050    -0.6580 ca         1 E4D       0.144100
     16 O16          4.7650    -0.2830    -0.1110 oh         1 E4D      -0.495100
     17 C17          2.8020     0.9950     0.0610 ca         1 E4D      -0.195500
     18 C18          1.5950     1.4200    -0.4670 ca         1 E4D      -0.067500
     19 C19         -1.4280     0.1270    -0.4540 ca         1 E4D      -0.129300
     20 C20         -2.1650     0.9800     0.3530 ca         1 E4D      -0.069000
     21 C21         -2.2250     0.8100     1.7310 ca         1 E4D      -0.197000
     22 C22         -1.5400    -0.2480     2.3230 ca         1 E4D       0.152100
     23 C23         -0.8050    -1.1190     1.5160 ca         1 E4D      -0.197000
     24 C24         -0.7450    -0.9270     0.1490 ca         1 E4D      -0.069000
     25 O25         -1.5330    -0.5060     3.6430 os         1 E4D      -0.299900
     26 C26         -2.1100     0.4410     4.5230 c3         1 E4D       0.140400
     27 C27         -1.8790    -0.0090     5.9490 c3         1 E4D       0.171800
     28 N28         -0.4990    -0.2790     6.2900 n3         1 E4D      -0.705600
     29 C29          0.3660     0.8760     6.1360 c6         1 E4D       0.168300
     30 C30          1.8160     0.5230     6.4350 c6         1 E4D      -0.074900
     31 C31          1.9620    -0.0720     7.8280 c6         1 E4D      -0.075400
     32 C32          1.0010    -1.2430     7.9870 c6         1 E4D      -0.074900
     33 C33         -0.4170    -0.8260     7.6350 c6         1 E4D       0.168300
     34 H1          -0.4790     2.3560    -1.6920 h1         1 E4D       0.092700
     35 H2          -2.2680     0.8680    -2.2670 h1         1 E4D       0.062700
     36 H5          -1.7200    -2.8000    -4.0510 ha         1 E4D       0.147000
     37 H6          -1.7010    -2.9200    -6.5040 ha         1 E4D       0.135000
     38 HO8         -1.3280    -1.7240    -8.4450 ho         1 E4D       0.425000
     39 H9          -0.4140     1.1630    -6.6750 ha         1 E4D       0.157000
     40 H13          1.6580    -0.2540    -3.4000 ha         1 E4D       0.136500
     41 H14          3.7730    -1.0260    -2.4810 ha         1 E4D       0.139500
     42 H16          5.2240    -0.8950    -0.6970 ho         1 E4D       0.425000
     43 H17          3.1310     1.3530     1.0290 ha         1 E4D       0.139500
     44 H18          0.9880     2.1070     0.1080 ha         1 E4D       0.136500
     45 H20         -2.7100     1.8070    -0.0900 ha         1 E4D       0.138000
     46 H21         -2.8140     1.5030     2.3160 ha         1 E4D       0.142500
     47 H23         -0.2710    -1.9420     1.9740 ha         1 E4D       0.142500
     48 H24         -0.1500    -1.6080    -0.4450 ha         1 E4D       0.138000
     49 H261        -3.1910     0.5200     4.3610 h1         1 E4D       0.033700
     50 H262        -1.6860     1.4350     4.3410 h1         1 E4D       0.033700
     51 H271        -2.4560    -0.9220     6.1270 h1         1 E4D       0.038700
     52 H272        -2.3280     0.7660     6.5950 h1         1 E4D       0.038700
     53 H291         0.3000     1.2450     5.1110 h1         1 E4D       0.027450
     54 H292         0.0470     1.7080     6.7910 h1         1 E4D       0.027450
     55 H301         2.4340     1.4170     6.3250 hc         1 E4D       0.047700
     56 H302         2.1650    -0.2000     5.6910 hc         1 E4D       0.047700
     57 H311         1.7380     0.6910     8.5800 hc         1 E4D       0.038200
     58 H312         2.9920    -0.3900     8.0050 hc         1 E4D       0.038200
     59 H321         1.0200    -1.6290     9.0080 hc         1 E4D       0.047700
     60 H322         1.3090    -2.0630     7.3300 hc         1 E4D       0.047700
     61 H331        -0.7770    -0.0970     8.3840 h1         1 E4D       0.027450
     62 H332        -1.0860    -1.6880     7.6970 h1         1 E4D       0.027450
@<TRIPOS>BOND
     1     1     2 1   
     2     1    11 1   
     3     1    12 1   
     4     1    34 1   
     5     2     3 1   
     6     2    19 1   
     7     2    35 1   
     8     3     4 1   
     9     4     5 ar  
    10     4    10 ar  
    11     5     6 ar  
    12     5    36 1   
    13     6     7 ar  
    14     6    37 1   
    15     7     8 1   
    16     7     9 ar  
    17     8    38 1   
    18     9    10 ar  
    19     9    39 1   
    20    10    11 1   
    21    12    13 ar  
    22    12    18 ar  
    23    13    14 ar  
    24    13    40 1   
    25    14    15 ar  
    26    14    41 1   
    27    15    16 1   
    28    15    17 ar  
    29    16    42 1   
    30    17    18 ar  
    31    17    43 1   
    32    18    44 1   
    33    19    20 ar  
    34    19    24 ar  
    35    20    21 ar  
    36    20    45 1   
    37    21    22 ar  
    38    21    46 1   
    39    22    23 ar  
    40    22    25 1   
    41    23    24 ar  
    42    23    47 1   
    43    24    48 1   
    44    25    26 1   
    45    26    27 1   
    46    26    49 1   
    47    26    50 1   
    48    27    28 1   
    49    27    51 1   
    50    27    52 1   
    51    28    29 1   
    52    28    33 1   
    53    29    30 1   
    54    29    53 1   
    55    29    54 1   
    56    30    31 1   
    57    30    55 1   
    58    30    56 1   
    59    31    32 1   
    60    31    57 1   
    61    31    58 1   
    62    32    33 1   
    63    32    59 1   
    64    32    60 1   
    65    33    61 1   
    66    33    62 1   
@<TRIPOS>SUBSTRUCTURE
     1 E4D         1 TEMP              0 ****  ****    0 ROOT
