@<TRIPOS>MOLECULE
E4E
   44    47     1     0     0
SMALL
bcc


@<TRIPOS>ATOM
      1 C1           5.3430    -0.6360    -0.1300 c5         1 E4E       0.296900
      2 C2           3.8980     0.7510     1.0560 c5         1 E4E       0.134100
      3 C3           2.5540     0.8480     0.3440 c3         1 E4E       0.197800
      4 C4           0.3440    -0.1960     0.5820 cc         1 E4E       0.657700
      5 O            4.8770    -1.4920    -1.1140 os         1 E4E      -0.429600
      6 C5          -1.6490     0.5680     0.0260 ca         1 E4E      -0.033200
      7 C6          -2.7540     1.2870    -0.3640 ca         1 E4E      -0.155000
      8 C7          -3.9900     0.6230    -0.3650 ca         1 E4E       0.228400
      9 C8          -6.2380     0.7170    -0.7520 cc         1 E4E       0.711800
     10 C9          -5.3380    -1.4030     0.0110 c          1 E4E       0.736100
     11 O1           4.4510    -0.5540     0.9620 os         1 E4E      -0.417600
     12 O2          -5.5410    -2.5670     0.3190 o          1 E4E      -0.618500
     13 C10         -4.0480    -0.7360     0.0260 ca         1 E4E      -0.239600
     14 N            1.6660    -0.1770     0.8430 nu         1 E4E      -0.825200
     15 C11         -2.9060    -1.4460     0.4210 ca         1 E4E      -0.003000
     16 C12         -1.6950    -0.7910     0.4230 ca         1 E4E       0.071400
     17 C13          4.9430     1.6630     0.4320 c5         1 E4E       0.131100
     18 N2          -5.1010     1.3320    -0.7430 nd         1 E4E      -0.709100
     19 N3          -7.3600     1.3450    -1.1630 nv         1 E4E      -0.927800
     20 N4          -6.3780    -0.5980    -0.3980 ns         1 E4E      -0.522400
     21 N1          -0.3270     0.9120     0.1370 na         1 E4E      -0.311300
     22 N5          -0.4350    -1.2320     0.7590 nd         1 E4E      -0.635100
     23 C17          5.4520     0.7830    -0.7090 c5         1 E4E       0.083100
     24 O4           6.7430     1.1630    -1.0850 oh         1 E4E      -0.590800
     25 O3           5.9370     1.9070     1.3930 oh         1 E4E      -0.581800
     26 H1           6.3110    -0.9900     0.2550 h2         1 E4E       0.074700
     27 H2           3.7470     0.9760     2.1150 h1         1 E4E       0.108700
     28 H3           2.1470     1.8350     0.5680 h1         1 E4E       0.040200
     29 H4           2.6750     0.7840    -0.7440 h1         1 E4E       0.040200
     30 H6          -2.6960     2.3260    -0.6590 ha         1 E4E       0.149000
     31 H7           2.0740    -1.0910     0.9680 hn         1 E4E       0.463800
     32 H8          -2.9830    -2.4840     0.7150 ha         1 E4E       0.166000
     33 H9           4.5030     2.5970     0.0570 h1         1 E4E       0.055700
     34 H10         -8.2610     0.9780    -0.9060 hn         1 E4E       0.433300
     35 H11         -7.3100     2.3480    -1.2270 hn         1 E4E       0.433300
     36 H12         -7.2950    -1.0250    -0.4340 hn         1 E4E       0.322500
     37 H13          0.0650     1.8150    -0.0760 hn         1 E4E       0.303700
     38 H15          4.7500     0.8660    -1.5490 h1         1 E4E       0.058700
     39 H16          6.9690     0.7340    -1.9160 ho         1 E4E       0.427000
     40 H17          6.6980     2.2980     0.9510 ho         1 E4E       0.429000
     41 C14          4.9130    -2.8610    -0.7670 c3         1 E4E       0.128700
     42 H5           5.9110    -3.1650    -0.4310 h1         1 E4E       0.038033
     43 H14          4.1950    -3.1090     0.0190 h1         1 E4E       0.038033
     44 H18          4.6590    -3.4320    -1.6580 h1         1 E4E       0.038033
@<TRIPOS>BOND
     1     1     5 1   
     2     1    11 1   
     3     1    23 1   
     4     1    26 1   
     5     2     3 1   
     6     2    11 1   
     7     2    17 1   
     8     2    27 1   
     9     3    14 1   
    10     3    28 1   
    11     3    29 1   
    12     4    14 1   
    13     4    21 1   
    14     4    22 2   
    15     5    41 1   
    16     6     7 ar  
    17     6    16 ar  
    18     6    21 1   
    19     7     8 ar  
    20     7    30 1   
    21     8    13 ar  
    22     8    18 1   
    23     9    18 2   
    24     9    19 1   
    25     9    20 1   
    26    10    12 2   
    27    10    13 1   
    28    10    20 1   
    29    13    15 ar  
    30    14    31 1   
    31    15    16 ar  
    32    15    32 1   
    33    16    22 1   
    34    17    23 1   
    35    17    25 1   
    36    17    33 1   
    37    19    34 1   
    38    19    35 1   
    39    20    36 1   
    40    21    37 1   
    41    23    24 1   
    42    23    38 1   
    43    24    39 1   
    44    25    40 1   
    45    41    42 1   
    46    41    43 1   
    47    41    44 1   
@<TRIPOS>SUBSTRUCTURE
     1 E4E         1 TEMP              0 ****  ****    0 ROOT
