@<TRIPOS>MOLECULE
E4E
   44    47     1     0     0
SMALL
No Charge or Current Charge


@<TRIPOS>ATOM
      1 C1           4.7500    -0.6410    -0.4110 c5         1 E4E       0.343300
      2 C2           4.2770     0.8190     1.3610 c5         1 E4E       0.157300
      3 C3           2.8200     1.2900     1.0580 c3         1 E4E       0.197800
      4 C4           0.5470     0.2400     1.1990 cc         1 E4E       0.657700
      5 O            3.5130    -0.8310    -1.1310 os         1 E4E      -0.476000
      6 C5          -1.3670     0.6420     0.2200 ca         1 E4E      -0.033200
      7 C6          -2.4590     1.1590    -0.4850 ca         1 E4E      -0.137000
      8 C7          -3.6310     0.3770    -0.5700 ca         1 E4E       0.228400
      9 C8          -5.7580     0.1170    -1.3020 cc         1 E4E       0.711800
     10 C9          -4.8960    -1.7020    -0.0460 c          1 E4E       0.593600
     11 O1           4.4660    -0.5750     1.0040 os         1 E4E      -0.464000
     12 O2          -5.0340    -2.8110     0.4440 o          1 E4E      -0.543000
     13 C10         -3.6590    -0.8950     0.0570 ca         1 E4E      -0.239600
     14 N            1.8130     0.3830     1.6370 nu         1 E4E      -0.880400
     15 C11         -2.5300    -1.3850     0.7630 ca         1 E4E       0.015000
     16 C12         -1.3840    -0.5810     0.8270 ca         1 E4E       0.071400
     17 C13          5.3860     1.5440     0.5370 c5         1 E4E       0.154300
     18 N2          -4.7190     0.9120    -1.2810 nd         1 E4E      -0.709100
     19 N3          -6.8200     0.5610    -1.9500 nv         1 E4E      -1.038200
     20 N4          -5.8800    -1.1000    -0.7430 ns         1 E4E      -0.455400
     21 N1          -0.1380     1.1750     0.4540 na         1 E4E      -0.361600
     22 N5          -0.1700    -0.8520     1.4580 nd         1 E4E      -0.635100
     23 C17          5.3210     0.7750    -0.8240 c5         1 E4E       0.106300
     24 O4           6.6280     0.7350    -1.4470 oh         1 E4E      -0.713000
     25 O3           6.6950     1.3850     1.0930 oh         1 E4E      -0.704000
     26 H1           5.4570    -1.4530    -0.6290 h2         1 E4E       0.074700
     27 H2           4.4480     0.9370     2.4390 h1         1 E4E       0.108700
     28 H3           2.6870     2.2990     1.4710 h1         1 E4E       0.040200
     29 H4           2.6740     1.3630    -0.0280 h1         1 E4E       0.040200
     30 H6          -2.4080     2.1370    -0.9550 ha         1 E4E       0.131000
     31 H7           2.1630    -0.5010     2.0010 hn         1 E4E       0.519000
     32 H8          -2.5410    -2.3590     1.2470 ha         1 E4E       0.148000
     33 H9           5.1550     2.6110     0.4060 h1         1 E4E       0.055700
     34 H10         -7.7230     0.2510    -1.6120 hn         1 E4E       0.488500
     35 H11         -6.7660     1.5410    -2.2010 hn         1 E4E       0.488500
     36 H12         -6.7340    -1.6170    -0.8610 hn         1 E4E       0.322500
     37 H13          0.2150     2.0720     0.1630 hn         1 E4E       0.354000
     38 H15          4.6080     1.2810    -1.4910 h1         1 E4E       0.058700
     39 H16          6.5000     0.4240    -2.3770 ho         1 E4E       0.526000
     40 H17          7.2140     1.1000     0.2950 ho         1 E4E       0.528000
     41 C14          2.8380    -2.0850    -0.9370 c3         1 E4E       0.151900
     42 H5           3.4800    -2.9240    -1.2390 h1         1 E4E       0.038033
     43 H14          2.5590    -2.2230     0.1150 h1         1 E4E       0.038033
     44 H18          1.9210    -2.1220    -1.5390 h1         1 E4E       0.038033
@<TRIPOS>BOND
     1     1     5 1   
     2     1    11 1   
     3     1    23 1   
     4     1    26 1   
     5     2     3 1   
     6     2    11 1   
     7     2    17 1   
     8     2    27 1   
     9     3    14 1   
    10     3    28 1   
    11     3    29 1   
    12     4    14 1   
    13     4    21 1   
    14     4    22 2   
    15     5    41 1   
    16     6     7 ar  
    17     6    16 ar  
    18     6    21 1   
    19     7     8 ar  
    20     7    30 1   
    21     8    13 ar  
    22     8    18 1   
    23     9    18 2   
    24     9    19 1   
    25     9    20 1   
    26    10    12 2   
    27    10    13 1   
    28    10    20 1   
    29    13    15 ar  
    30    14    31 1   
    31    15    16 ar  
    32    15    32 1   
    33    16    22 1   
    34    17    23 1   
    35    17    25 1   
    36    17    33 1   
    37    19    34 1   
    38    19    35 1   
    39    20    36 1   
    40    21    37 1   
    41    23    24 1   
    42    23    38 1   
    43    24    39 1   
    44    25    40 1   
    45    41    42 1   
    46    41    43 1   
    47    41    44 1   
@<TRIPOS>SUBSTRUCTURE
     1 E4E         1 TEMP              0 ****  ****    0 ROOT
