@<TRIPOS>MOLECULE
E4F
   55    58     1     0     0
SMALL
bcc


@<TRIPOS>ATOM
      1 C1           2.2990     4.3740    -0.2690 ca         1 E4F      -0.147000
      2 C2           2.9010     3.2710    -0.8670 ca         1 E4F      -0.134000
      3 C3           1.0010     4.2900     0.2250 ca         1 E4F      -0.129000
      4 C4           2.2170     2.0650    -0.9710 ca         1 E4F      -0.086000
      5 C5           2.5410    -0.0140     1.8690 ca         1 E4F      -0.147000
      6 C6           3.9110    -0.2670     1.9960 ca         1 E4F      -0.149000
      7 C7           2.3700    -1.3410    -0.1550 ca         1 E4F      -0.094600
      8 C8           0.3200     3.0870     0.1170 ca         1 E4F      -0.105300
      9 C9           0.9270     1.9800    -0.4700 ca         1 E4F      -0.059300
     10 C10          1.7720    -0.5330     0.8350 ca         1 E4F      -0.065300
     11 C11          4.4740    -1.0520     1.0230 ca         1 E4F       0.026100
     12 C12          3.7220    -1.5540    -0.0250 ca         1 E4F       0.059100
     13 C15         -1.0810     2.7500     0.5400 c5         1 E4F      -0.042100
     14 C16          5.8500    -2.0670    -0.3820 c5         1 E4F       0.322200
     15 C17          0.0090     0.7910    -0.4380 c5         1 E4F      -0.032400
     16 C18         -1.3670     1.4880    -0.2860 c5         1 E4F       0.107700
     17 C19          0.3210    -0.1470     0.7450 c3         1 E4F      -0.004100
     18 C20         -4.2510    -0.8990     0.3070 c3         1 E4F      -0.158400
     19 C21         -5.6550    -0.5120    -0.1570 c3         1 E4F      -0.069400
     20 C22         -6.7400    -1.2870     0.5770 c3         1 E4F      -0.079400
     21 C23         -8.1400    -0.8790     0.1410 c3         1 E4F       0.147800
     22 N25         -2.4220     0.6830     0.2720 ns         1 E4F      -0.563900
     23 N24         -9.1510    -1.6470     0.8530 n8         1 E4F      -0.884800
     24 O30          0.6770    -2.7080    -1.0550 o          1 E4F      -0.810800
     25 O26          1.9990    -1.5800    -2.4580 o          1 E4F      -0.810800
     26 O27         -3.0660    -0.2610    -1.6720 o          1 E4F      -0.587100
     27 O28          5.7590    -1.4830     0.9100 os         1 E4F      -0.346900
     28 O29          4.5260    -2.3190    -0.8170 os         1 E4F      -0.293900
     29 H1           2.8410     5.3090    -0.1990 ha         1 E4F       0.112000
     30 H2           3.9070     3.3560    -1.2580 ha         1 E4F       0.123000
     31 H3           0.5310     5.1560     0.6750 ha         1 E4F       0.114000
     32 H4           2.6780     1.2060    -1.4440 ha         1 E4F       0.173000
     33 H5           2.0630     0.6230     2.6020 ha         1 E4F       0.111000
     34 H6           4.4870     0.1370     2.8180 ha         1 E4F       0.125000
     35 H7          -1.1260     2.5460     1.6170 hc         1 E4F       0.041700
     36 H8          -1.8000     3.5460     0.3420 hc         1 E4F       0.041700
     37 H9           6.3440    -1.3690    -1.0700 h2         1 E4F       0.042200
     38 H10          6.4070    -3.0020    -0.3260 h2         1 E4F       0.042200
     39 H11          0.0460     0.2190    -1.3670 hc         1 E4F       0.122700
     40 H12         -1.6820     1.8060    -1.2830 h1         1 E4F       0.077700
     41 H13         -0.3080    -1.0340     0.6580 hc         1 E4F       0.046200
     42 H14          0.0390     0.3460     1.6800 hc         1 E4F       0.046200
     43 H15         -4.0940    -1.9680     0.1400 hc         1 E4F       0.058700
     44 H16         -4.1600    -0.7300     1.3830 hc         1 E4F       0.058700
     45 H17         -5.8020     0.5620    -0.0020 hc         1 E4F       0.047700
     46 H18         -5.7430    -0.6870    -1.2320 hc         1 E4F       0.047700
     47 H19         -6.6100    -2.3600     0.4090 hc         1 E4F       0.044700
     48 H20         -6.6380    -1.1250     1.6560 hc         1 E4F       0.044700
     49 H21         -8.2450     0.2090     0.2650 h1         1 E4F       0.026700
     50 H22         -8.2510    -1.0750    -0.9290 h1         1 E4F       0.026700
     51 H23         -2.5530     0.6980     1.2700 hn         1 E4F       0.301500
     52 H24         -9.1210    -1.4050     1.8360 hn         1 E4F       0.330800
     53 H25        -10.0720    -1.3720     0.5350 hn         1 E4F       0.330800
     54 C14         -3.1890    -0.1440    -0.4600 c          1 E4F       0.670100
     55 C13          1.6090    -1.9310    -1.3300 c          1 E4F       0.931200
@<TRIPOS>BOND
     1     1     2 ar  
     2     1     3 ar  
     3     1    29 1   
     4     2     4 ar  
     5     2    30 1   
     6     3     8 ar  
     7     3    31 1   
     8     4     9 ar  
     9     4    32 1   
    10     5     6 ar  
    11     5    10 ar  
    12     5    33 1   
    13     6    11 ar  
    14     6    34 1   
    15     7    10 ar  
    16     7    12 ar  
    17     7    55 1   
    18     8     9 ar  
    19     8    13 1   
    20     9    15 1   
    21    10    17 1   
    22    11    12 ar  
    23    11    27 1   
    24    12    28 1   
    25    13    16 1   
    26    13    35 1   
    27    13    36 1   
    28    14    27 1   
    29    14    28 1   
    30    14    37 1   
    31    14    38 1   
    32    15    16 1   
    33    15    17 1   
    34    15    39 1   
    35    16    22 1   
    36    16    40 1   
    37    17    41 1   
    38    17    42 1   
    39    18    19 1   
    40    18    43 1   
    41    18    44 1   
    42    18    54 1   
    43    19    20 1   
    44    19    45 1   
    45    19    46 1   
    46    20    21 1   
    47    20    47 1   
    48    20    48 1   
    49    21    23 1   
    50    21    49 1   
    51    21    50 1   
    52    22    51 1   
    53    22    54 1   
    54    23    52 1   
    55    23    53 1   
    56    24    55 1   
    57    25    55 1   
    58    26    54 2   
@<TRIPOS>SUBSTRUCTURE
     1 E4F         1 TEMP              0 ****  ****    0 ROOT
