@<TRIPOS>MOLECULE
E4F
   55    58     1     0     0
SMALL
No Charge or Current Charge


@<TRIPOS>ATOM
      1 C1           2.2080     4.7090    -0.0230 ca         1 E4F      -0.129000
      2 C2           2.9130     3.6030    -0.5420 ca         1 E4F      -0.116000
      3 C3           0.8420     4.5900     0.2970 ca         1 E4F      -0.111000
      4 C4           2.2550     2.3740    -0.7400 ca         1 E4F      -0.068000
      5 C5           2.5730     0.1090     1.6820 ca         1 E4F      -0.129000
      6 C6           3.9160    -0.3010     1.7940 ca         1 E4F      -0.131000
      7 C7           2.2100    -1.4840    -0.1540 ca         1 E4F      -0.094600
      8 C8           0.2020     3.3590     0.0910 ca         1 E4F      -0.105300
      9 C9           0.8920     2.2700    -0.4100 ca         1 E4F      -0.059300
     10 C10          1.7120    -0.4710     0.7140 ca         1 E4F      -0.065300
     11 C11          4.3740    -1.2920     0.9220 ca         1 E4F       0.026100
     12 C12          3.5560    -1.8610    -0.0140 ca         1 E4F       0.059100
     13 C15         -1.2450     3.0390     0.3590 c5         1 E4F      -0.042100
     14 C16          5.5790    -2.7270    -0.2460 c5         1 E4F       0.368600
     15 C17          0.0170     1.0420    -0.5350 c5         1 E4F      -0.032400
     16 C18         -1.3970     1.7720    -0.5650 c5         1 E4F       0.107700
     17 C19          0.2690     0.0260     0.6200 c3         1 E4F      -0.004100
     18 C20         -4.0070    -0.9270     0.1510 c3         1 E4F      -0.158400
     19 C21         -5.4760    -0.5750    -0.1840 c3         1 E4F      -0.069400
     20 C22         -6.4970    -1.4290     0.6010 c3         1 E4F      -0.079400
     21 C23         -7.9600    -1.0740     0.2610 c3         1 E4F       0.147800
     22 N25         -2.3880     0.9150     0.1030 ns         1 E4F      -0.496900
     23 N24         -8.9090    -1.9060     1.0230 n8         1 E4F      -0.995200
     24 O30          0.5850    -3.0290    -0.8320 o          1 E4F      -0.705500
     25 O26          1.4710    -1.7830    -2.3560 o          1 E4F      -0.705500
     26 O27         -2.8090    -0.2380    -1.8320 o          1 E4F      -0.587100
     27 O28          5.6270    -1.8110     0.9040 os         1 E4F      -0.370100
     28 O29          4.1970    -2.8180    -0.7360 os         1 E4F      -0.317100
     29 H1           2.7210     5.6560     0.1300 ha         1 E4F       0.094000
     30 H2           3.9680     3.6980    -0.7880 ha         1 E4F       0.105000
     31 H3           0.2920     5.4410     0.6930 ha         1 E4F       0.096000
     32 H4           2.7950     1.5170    -1.1370 ha         1 E4F       0.155000
     33 H5           2.2000     0.8870     2.3440 ha         1 E4F       0.093000
     34 H6           4.5780     0.1400     2.5350 ha         1 E4F       0.107000
     35 H7          -1.4060     2.8190     1.4210 hc         1 E4F       0.041700
     36 H8          -1.9300     3.8450     0.0720 hc         1 E4F       0.041700
     37 H9           6.2140    -2.3270    -1.0450 h2         1 E4F       0.042200
     38 H10          5.9310    -3.7210     0.0560 h2         1 E4F       0.042200
     39 H11          0.1890     0.5140    -1.4800 hc         1 E4F       0.122700
     40 H12         -1.6760     2.0670    -1.5870 h1         1 E4F       0.077700
     41 H13         -0.4010    -0.8350     0.5110 hc         1 E4F       0.046200
     42 H14         -0.0150     0.4890     1.5730 hc         1 E4F       0.046200
     43 H15         -3.8330    -1.9770    -0.1090 hc         1 E4F       0.058700
     44 H16         -3.8520    -0.7810     1.2270 hc         1 E4F       0.058700
     45 H17         -5.6510     0.4870     0.0330 hc         1 E4F       0.047700
     46 H18         -5.6440    -0.7120    -1.2600 hc         1 E4F       0.047700
     47 H19         -6.3220    -2.4900     0.3810 hc         1 E4F       0.044700
     48 H20         -6.3300    -1.2900     1.6760 hc         1 E4F       0.044700
     49 H21         -8.1490    -0.0180     0.4970 h1         1 E4F       0.026700
     50 H22         -8.1390    -1.2300    -0.8120 h1         1 E4F       0.026700
     51 H23         -2.6330     0.9900     1.0830 hn         1 E4F       0.301500
     52 H24         -8.8010    -1.7030     2.0240 hn         1 E4F       0.386000
     53 H25         -9.8670    -1.5950     0.8170 hn         1 E4F       0.386000
     54 C14         -3.0250    -0.0580    -0.6420 c          1 E4F       0.603100
     55 C13          1.3550    -2.1500    -1.1950 c          1 E4F       0.720600
@<TRIPOS>BOND
     1     1     2 ar  
     2     1     3 ar  
     3     1    29 1   
     4     2     4 ar  
     5     2    30 1   
     6     3     8 ar  
     7     3    31 1   
     8     4     9 ar  
     9     4    32 1   
    10     5     6 ar  
    11     5    10 ar  
    12     5    33 1   
    13     6    11 ar  
    14     6    34 1   
    15     7    10 ar  
    16     7    12 ar  
    17     7    55 1   
    18     8     9 ar  
    19     8    13 1   
    20     9    15 1   
    21    10    17 1   
    22    11    12 ar  
    23    11    27 1   
    24    12    28 1   
    25    13    16 1   
    26    13    35 1   
    27    13    36 1   
    28    14    27 1   
    29    14    28 1   
    30    14    37 1   
    31    14    38 1   
    32    15    16 1   
    33    15    17 1   
    34    15    39 1   
    35    16    22 1   
    36    16    40 1   
    37    17    41 1   
    38    17    42 1   
    39    18    19 1   
    40    18    43 1   
    41    18    44 1   
    42    18    54 1   
    43    19    20 1   
    44    19    45 1   
    45    19    46 1   
    46    20    21 1   
    47    20    47 1   
    48    20    48 1   
    49    21    23 1   
    50    21    49 1   
    51    21    50 1   
    52    22    51 1   
    53    22    54 1   
    54    23    52 1   
    55    23    53 1   
    56    24    55 1   
    57    25    55 1   
    58    26    54 2   
@<TRIPOS>SUBSTRUCTURE
     1 E4F         1 TEMP              0 ****  ****    0 ROOT
