@<TRIPOS>MOLECULE
E4G
   84    87     1     0     0
SMALL
bcc


@<TRIPOS>ATOM
      1 C3          31.2050     6.4280    14.7320 c3         1 E4G       0.076700
      2 C5          32.3220     7.1680    15.4830 c3         1 E4G      -0.054100
      3 C8          31.8410     8.4370    16.1310 ca         1 E4G      -0.041300
      4 C11         31.4390     9.7140    18.1540 ca         1 E4G       0.147100
      5 C12         30.9270    10.7560    17.3800 ca         1 E4G      -0.169000
      6 C14         30.8800    10.6330    16.0020 ca         1 E4G      -0.085000
      7 C16         31.3380     9.4850    15.3690 ca         1 E4G      -0.152000
      8 C19         31.9530     8.9790    20.4150 c3         1 E4G       0.145400
      9 C22         30.8490     8.3960    21.2750 c3         1 E4G      -0.097400
     10 C25         29.7070     7.7030    20.5270 c3         1 E4G      -0.104400
     11 C28         28.6230     8.6770    20.0770 c3         1 E4G       0.140400
     12 C32         27.2010     7.4830    18.5500 ca         1 E4G       0.180100
     13 C33         28.1630     7.4080    17.5490 ca         1 E4G      -0.237000
     14 C35         27.8080     6.8550    16.3190 ca         1 E4G      -0.082600
     15 C36         26.5300     6.3880    16.0760 ca         1 E4G      -0.146000
     16 C38         25.5840     6.4350    17.1010 ca         1 E4G       0.174100
     17 C39         25.9140     6.9840    18.3300 ca         1 E4G      -0.238000
     18 C42         23.3460     5.9550    17.7480 c3         1 E4G       0.027400
     19 C45         23.5000     4.8640    18.7900 c          1 E4G       0.538100
     20 C47         22.4690     4.8890    19.8780 c3         1 E4G      -0.203100
     21 C51         28.8080     6.8060    15.2070 c          1 E4G       0.682700
     22 C53         31.6380     5.0070    14.3170 c3         1 E4G       0.144100
     23 C57         30.6600     4.4000    13.3250 c3         1 E4G       0.157800
     24 C62         30.2010     2.4130    12.0140 c3         1 E4G       0.215100
     25 C65         30.8240     2.7650    10.6820 ca         1 E4G      -0.088300
     26 C66         32.1250     3.2420    10.5930 ca         1 E4G      -0.102000
     27 C68         32.7080     3.5540     9.3650 ca         1 E4G      -0.078300
     28 C69         31.9630     3.3600     8.2070 ca         1 E4G      -0.128000
     29 C71         30.6610     2.8760     8.2800 ca         1 E4G      -0.132000
     30 C73         30.0910     2.5890     9.5090 ca         1 E4G      -0.133000
     31 C75         34.1150     4.1040     9.3050 c3         1 E4G      -0.013400
     32 C77         34.2100     5.4460    10.0330 c3         1 E4G      -0.086600
     33 C81         35.1290     3.1080     9.8670 c3         1 E4G      -0.086600
     34 C9          31.8810     8.5530    17.5200 ca         1 E4G      -0.227000
     35 N1          30.0250     6.3640    15.5670 ns         1 E4G      -0.569900
     36 N60         30.9060     2.9840    13.1400 n7         1 E4G      -0.809200
     37 O18         31.4580     9.9350    19.4850 os         1 E4G      -0.336900
     38 O31         27.3980     8.0260    19.7630 os         1 E4G      -0.328900
     39 O41         24.3640     5.9510    16.7870 os         1 E4G      -0.293900
     40 O46         24.3910     4.0530    18.7250 o          1 E4G      -0.488100
     41 O52         28.5080     7.1370    14.0700 o          1 E4G      -0.591100
     42 O55         32.9110     5.0130    13.7130 oh         1 E4G      -0.580800
     43 H1          30.9370     6.9960    13.8380 h1         1 E4G       0.096700
     44 H2          32.7450     6.5110    16.2510 hc         1 E4G       0.053700
     45 H3          33.1280     7.3900    14.7810 hc         1 E4G       0.053700
     46 H4          30.5710    11.6570    17.8640 ha         1 E4G       0.146000
     47 H5          30.4840    11.4510    15.4140 ha         1 E4G       0.138000
     48 H6          31.3020     9.4110    14.2900 ha         1 E4G       0.143000
     49 H7          32.5070     8.1800    19.9230 h1         1 E4G       0.049700
     50 H8          32.6660     9.5060    21.0520 h1         1 E4G       0.049700
     51 H9          31.3340     7.6740    21.9370 hc         1 E4G       0.053200
     52 H10         30.4390     9.1710    21.9290 hc         1 E4G       0.053200
     53 H11         29.2380     6.9840    21.2020 hc         1 E4G       0.052200
     54 H12         30.1000     7.1250    19.6850 hc         1 E4G       0.052200
     55 H13         28.9410     9.3070    19.2440 h1         1 E4G       0.063200
     56 H14         28.3780     9.3430    20.9060 h1         1 E4G       0.063200
     57 H15         29.1650     7.7940    17.6880 ha         1 E4G       0.148000
     58 H16         26.2610     5.9740    15.1130 ha         1 E4G       0.164000
     59 H17         25.2040     7.0570    19.1430 ha         1 E4G       0.145000
     60 H18         23.2270     6.9300    18.2360 h1         1 E4G       0.074700
     61 H19         22.4110     5.7740    17.2100 h1         1 E4G       0.074700
     62 H20         22.4890     3.9710    20.4610 hc         1 E4G       0.064033
     63 H21         22.6690     5.7310    20.5450 hc         1 E4G       0.064033
     64 H22         21.4690     5.0410    19.4710 hc         1 E4G       0.064033
     65 H23         31.6460     4.3910    15.2310 h1         1 E4G       0.024700
     66 H24         30.7940     4.9090    12.3650 h1         1 E4G       0.056200
     67 H25         29.6290     4.6060    13.6430 h1         1 E4G       0.056200
     68 H26         29.1340     2.6900    11.9840 h1         1 E4G       0.036200
     69 H27         30.2200     1.3250    12.1280 h1         1 E4G       0.036200
     70 H28         32.6800     3.3950    11.5120 ha         1 E4G       0.160000
     71 H29         32.3970     3.5930     7.2420 ha         1 E4G       0.125000
     72 H30         30.0880     2.7320     7.3720 ha         1 E4G       0.126000
     73 H31         29.0700     2.2270     9.5610 ha         1 E4G       0.124000
     74 H32         34.3600     4.2750     8.2520 hc         1 E4G       0.043700
     75 H33         33.5310     6.1820     9.5990 hc         1 E4G       0.035200
     76 H34         33.9560     5.3420    11.0900 hc         1 E4G       0.035200
     77 H35         35.2230     5.8480     9.9690 hc         1 E4G       0.035200
     78 H36         35.0810     2.1520     9.3420 hc         1 E4G       0.035200
     79 H37         36.1450     3.4930     9.7670 hc         1 E4G       0.035200
     80 H38         34.9520     2.9160    10.9270 hc         1 E4G       0.035200
     81 H39         32.2760     7.7170    18.0820 ha         1 E4G       0.128000
     82 H40         30.1530     6.0580    16.5200 hn         1 E4G       0.314500
     83 H41         30.6410     2.4860    13.9800 hn         1 E4G       0.352800
     84 H43         33.5830     5.1080    14.3950 ho         1 E4G       0.398000
@<TRIPOS>BOND
     1     1     2 1   
     2     1    22 1   
     3     1    35 1   
     4     1    43 1   
     5     2     3 1   
     6     2    44 1   
     7     2    45 1   
     8     3     7 ar  
     9     3    34 ar  
    10     4     5 ar  
    11     4    34 ar  
    12     4    37 1   
    13     5     6 ar  
    14     5    46 1   
    15     6     7 ar  
    16     6    47 1   
    17     7    48 1   
    18     8     9 1   
    19     8    37 1   
    20     8    49 1   
    21     8    50 1   
    22     9    10 1   
    23     9    51 1   
    24     9    52 1   
    25    10    11 1   
    26    10    53 1   
    27    10    54 1   
    28    11    38 1   
    29    11    55 1   
    30    11    56 1   
    31    12    13 ar  
    32    12    17 ar  
    33    12    38 1   
    34    13    14 ar  
    35    13    57 1   
    36    14    15 ar  
    37    14    21 1   
    38    15    16 ar  
    39    15    58 1   
    40    16    17 ar  
    41    16    39 1   
    42    17    59 1   
    43    18    19 1   
    44    18    39 1   
    45    18    60 1   
    46    18    61 1   
    47    19    20 1   
    48    19    40 2   
    49    20    62 1   
    50    20    63 1   
    51    20    64 1   
    52    21    35 1   
    53    21    41 2   
    54    22    23 1   
    55    22    42 1   
    56    22    65 1   
    57    23    36 1   
    58    23    66 1   
    59    23    67 1   
    60    24    25 1   
    61    24    36 1   
    62    24    68 1   
    63    24    69 1   
    64    25    26 ar  
    65    25    30 ar  
    66    26    27 ar  
    67    26    70 1   
    68    27    28 ar  
    69    27    31 1   
    70    28    29 ar  
    71    28    71 1   
    72    29    30 ar  
    73    29    72 1   
    74    30    73 1   
    75    31    32 1   
    76    31    33 1   
    77    31    74 1   
    78    32    75 1   
    79    32    76 1   
    80    32    77 1   
    81    33    78 1   
    82    33    79 1   
    83    33    80 1   
    84    34    81 1   
    85    35    82 1   
    86    36    83 1   
    87    42    84 1   
@<TRIPOS>SUBSTRUCTURE
     1 E4G         1 TEMP              0 ****  ****    0 ROOT
