@<TRIPOS>MOLECULE
E4G
   84    87     1     0     0
SMALL
No Charge or Current Charge


@<TRIPOS>ATOM
      1 C3          31.9450     6.6420    15.0820 c3         1 E4G       0.076700
      2 C5          32.9780     7.6130    15.7280 c3         1 E4G      -0.054100
      3 C8          32.3460     8.7860    16.4680 ca         1 E4G      -0.041300
      4 C11         31.5110     9.7380    18.5580 ca         1 E4G       0.147100
      5 C12         31.0720    10.8710    17.8550 ca         1 E4G      -0.151000
      6 C14         31.2670    10.9690    16.4670 ca         1 E4G      -0.067000
      7 C16         31.8940     9.9210    15.7720 ca         1 E4G      -0.134000
      8 C19         31.4100     8.4810    20.7030 c3         1 E4G       0.168600
      9 C22         30.1620     8.2910    21.5900 c3         1 E4G      -0.097400
     10 C25         28.9030     7.8080    20.8190 c3         1 E4G      -0.104400
     11 C28         28.2140     8.8970    19.9620 c3         1 E4G       0.163600
     12 C32         27.0910     7.5990    18.1570 ca         1 E4G       0.180100
     13 C33         28.2680     7.3970    17.3960 ca         1 E4G      -0.219000
     14 C35         28.2050     6.7230    16.1470 ca         1 E4G      -0.082600
     15 C36         26.9510     6.2480    15.7030 ca         1 E4G      -0.128000
     16 C38         25.7920     6.4180    16.4690 ca         1 E4G       0.174100
     17 C39         25.8650     7.1040    17.6940 ca         1 E4G      -0.220000
     18 C42         23.3660     5.9140    16.7110 c3         1 E4G       0.050600
     19 C45         23.3750     4.9220    17.8990 c          1 E4G       0.538100
     20 C47         22.1640     4.9910    18.8290 c3         1 E4G      -0.203100
     21 C51         29.4150     6.5250    15.2470 c          1 E4G       0.615700
     22 C53         32.5280     5.2000    14.9210 c3         1 E4G       0.167300
     23 C57         31.6000     4.1880    14.1970 c3         1 E4G       0.157800
     24 C62         31.6420     2.0090    12.9510 c3         1 E4G       0.215100
     25 C65         31.2500     2.6230    11.6110 ca         1 E4G      -0.088300
     26 C66         32.2450     3.0090    10.6920 ca         1 E4G      -0.084000
     27 C68         31.9000     3.5870     9.4520 ca         1 E4G      -0.078300
     28 C69         30.5390     3.7730     9.1390 ca         1 E4G      -0.110000
     29 C71         29.5410     3.3900    10.0510 ca         1 E4G      -0.114000
     30 C73         29.8940     2.8170    11.2840 ca         1 E4G      -0.115000
     31 C75         32.9820     4.0140     8.4580 c3         1 E4G      -0.013400
     32 C77         33.8740     5.1330     9.0400 c3         1 E4G      -0.086600
     33 C81         33.8190     2.8080     7.9780 c3         1 E4G      -0.086600
     34 C9          32.1710     8.7050    17.8610 ca         1 E4G      -0.209000
     35 N1          30.6630     6.6620    15.8210 ns         1 E4G      -0.502900
     36 N60         32.3720     2.9740    13.8000 n7         1 E4G      -0.864400
     37 O18         31.2220     9.6700    19.9070 os         1 E4G      -0.360100
     38 O31         27.0540     8.3200    19.3360 os         1 E4G      -0.352100
     39 O41         24.6070     5.9180    15.9620 os         1 E4G      -0.317100
     40 O46         24.2830     4.1250    18.1050 o          1 E4G      -0.488100
     41 O52         29.2910     6.2790    14.0550 o          1 E4G      -0.591100
     42 O55         33.7540     5.2170    14.1800 oh         1 E4G      -0.643000
     43 H1          31.7400     7.0290    14.0730 h1         1 E4G       0.096700
     44 H2          33.6060     7.0480    16.4270 hc         1 E4G       0.053700
     45 H3          33.6600     7.9770    14.9510 hc         1 E4G       0.053700
     46 H4          30.5630    11.6710    18.3880 ha         1 E4G       0.128000
     47 H5          30.9160    11.8460    15.9270 ha         1 E4G       0.120000
     48 H6          32.0220     9.9880    14.6940 ha         1 E4G       0.125000
     49 H7          31.5130     7.5720    20.1020 h1         1 E4G       0.049700
     50 H8          32.3060     8.5820    21.3300 h1         1 E4G       0.049700
     51 H9          30.4050     7.5390    22.3500 hc         1 E4G       0.053200
     52 H10         29.9430     9.2190    22.1330 hc         1 E4G       0.053200
     53 H11         28.1720     7.4390    21.5490 hc         1 E4G       0.052200
     54 H12         29.1700     6.9530    20.1870 hc         1 E4G       0.052200
     55 H13         28.8890     9.3300    19.2180 h1         1 E4G       0.063200
     56 H14         27.9040     9.7120    20.6290 h1         1 E4G       0.063200
     57 H15         29.2170     7.7930    17.7420 ha         1 E4G       0.130000
     58 H16         26.8710     5.7310    14.7500 ha         1 E4G       0.146000
     59 H17         24.9820     7.2820    18.2970 ha         1 E4G       0.127000
     60 H18         23.1260     6.9150    17.0890 h1         1 E4G       0.074700
     61 H19         22.5380     5.6120    16.0580 h1         1 E4G       0.074700
     62 H20         22.2130     4.2600    19.6440 hc         1 E4G       0.064033
     63 H21         22.0660     6.0140    19.2100 hc         1 E4G       0.064033
     64 H22         21.2500     4.8780    18.2350 hc         1 E4G       0.064033
     65 H23         32.7260     4.8020    15.9250 h1         1 E4G       0.024700
     66 H24         31.1880     4.6820    13.3060 h1         1 E4G       0.056200
     67 H25         30.7580     3.9260    14.8520 h1         1 E4G       0.056200
     68 H26         30.7420     1.6510    13.4700 h1         1 E4G       0.036200
     69 H27         32.2730     1.1310    12.7590 h1         1 E4G       0.036200
     70 H28         33.2910     2.8620    10.9520 ha         1 E4G       0.142000
     71 H29         30.2500     4.2170     8.1890 ha         1 E4G       0.107000
     72 H30         28.4920     3.5390     9.8030 ha         1 E4G       0.108000
     73 H31         29.1150     2.5280    11.9850 ha         1 E4G       0.106000
     74 H32         32.4970     4.4330     7.5670 hc         1 E4G       0.043700
     75 H33         33.2620     5.9880     9.3530 hc         1 E4G       0.035200
     76 H34         34.4380     4.7790     9.9110 hc         1 E4G       0.035200
     77 H35         34.5910     5.4860     8.2890 hc         1 E4G       0.035200
     78 H36         33.1690     2.0360     7.5490 hc         1 E4G       0.035200
     79 H37         34.5340     3.1170     7.2050 hc         1 E4G       0.035200
     80 H38         34.3840     2.3620     8.8050 hc         1 E4G       0.035200
     81 H39         32.5440     7.8250    18.3720 ha         1 E4G       0.110000
     82 H40         30.6840     6.8880    16.8070 hn         1 E4G       0.314500
     83 H41         32.6500     2.4790    14.6580 hn         1 E4G       0.408000
     84 H43         33.7120     4.3500    13.7050 ho         1 E4G       0.437000
@<TRIPOS>BOND
     1     1     2 1   
     2     1    22 1   
     3     1    35 1   
     4     1    43 1   
     5     2     3 1   
     6     2    44 1   
     7     2    45 1   
     8     3     7 ar  
     9     3    34 ar  
    10     4     5 ar  
    11     4    34 ar  
    12     4    37 1   
    13     5     6 ar  
    14     5    46 1   
    15     6     7 ar  
    16     6    47 1   
    17     7    48 1   
    18     8     9 1   
    19     8    37 1   
    20     8    49 1   
    21     8    50 1   
    22     9    10 1   
    23     9    51 1   
    24     9    52 1   
    25    10    11 1   
    26    10    53 1   
    27    10    54 1   
    28    11    38 1   
    29    11    55 1   
    30    11    56 1   
    31    12    13 ar  
    32    12    17 ar  
    33    12    38 1   
    34    13    14 ar  
    35    13    57 1   
    36    14    15 ar  
    37    14    21 1   
    38    15    16 ar  
    39    15    58 1   
    40    16    17 ar  
    41    16    39 1   
    42    17    59 1   
    43    18    19 1   
    44    18    39 1   
    45    18    60 1   
    46    18    61 1   
    47    19    20 1   
    48    19    40 2   
    49    20    62 1   
    50    20    63 1   
    51    20    64 1   
    52    21    35 1   
    53    21    41 2   
    54    22    23 1   
    55    22    42 1   
    56    22    65 1   
    57    23    36 1   
    58    23    66 1   
    59    23    67 1   
    60    24    25 1   
    61    24    36 1   
    62    24    68 1   
    63    24    69 1   
    64    25    26 ar  
    65    25    30 ar  
    66    26    27 ar  
    67    26    70 1   
    68    27    28 ar  
    69    27    31 1   
    70    28    29 ar  
    71    28    71 1   
    72    29    30 ar  
    73    29    72 1   
    74    30    73 1   
    75    31    32 1   
    76    31    33 1   
    77    31    74 1   
    78    32    75 1   
    79    32    76 1   
    80    32    77 1   
    81    33    78 1   
    82    33    79 1   
    83    33    80 1   
    84    34    81 1   
    85    35    82 1   
    86    36    83 1   
    87    42    84 1   
@<TRIPOS>SUBSTRUCTURE
     1 E4G         1 TEMP              0 ****  ****    0 ROOT
