@<TRIPOS>MOLECULE
E4H
   49    49     1     0     0
SMALL
No Charge or Current Charge


@<TRIPOS>ATOM
      1 CAD         44.0630    51.0690    16.6650 c3         1 E4H      -0.086100
      2 CAR         43.4510    51.7640    15.4220 c3         1 E4H      -0.056700
      3 CAL         44.2750    53.0310    15.0120 c3         1 E4H      -0.060400
      4 CAQ         44.3220    54.1970    16.0510 c3         1 E4H      -0.162700
      5 CAC         45.1070    55.4100    15.4950 c3         1 E4H      -0.081100
      6 CAN         42.9220    54.6340    16.5360 c          1 E4H       0.567300
      7 OAF         42.6380    54.6530    17.7270 o          1 E4H      -0.529100
      8 CAI         41.8910    54.8720    15.4850 ce         1 E4H      -0.303200
      9 CAJ         40.5570    54.7440    15.6850 c2         1 E4H      -0.148200
     10 CAP         39.4930    54.7400    14.5960 c3         1 E4H      -0.042500
     11 CAB         39.7750    55.7910    13.4920 c3         1 E4H      -0.083100
     12 CAU         39.3080    53.2840    14.0630 c3         1 E4H       0.174300
     13 CAK         38.2480    53.0920    12.9440 c3         1 E4H      -0.085400
     14 CAA         36.8130    53.4860    13.3520 c3         1 E4H      -0.089100
     15 OAM         40.5840    52.8370    13.5520 os         1 E4H      -0.458100
     16 CAO         40.9050    51.5050    13.6340 c          1 E4H       0.599100
     17 OAG         40.1930    50.6510    14.1450 o          1 E4H      -0.490000
     18 CAS         42.3160    51.2170    13.0940 c3         1 E4H      -0.153700
     19 CAE         42.2200    50.2150    11.9100 c3         1 E4H      -0.089100
     20 CAT         43.2500    50.7400    14.2490 c3         1 E4H       0.185300
     21 OAH         44.5300    50.3790    13.7110 oh         1 E4H      -0.663000
     22 HAD1        45.1000    50.7660    16.4760 hc         1 E4H       0.040367
     23 HAD2        44.0520    51.7330    17.5360 hc         1 E4H       0.040367
     24 HAD3        43.4890    50.1720    16.9290 hc         1 E4H       0.040367
     25 HAR         42.4510    52.0940    15.7260 hc         1 E4H       0.057700
     26 HAL1        45.3060    52.7250    14.7960 hc         1 E4H       0.051200
     27 HAL2        43.8870    53.4270    14.0680 hc         1 E4H       0.051200
     28 HAQ         44.8690    53.8500    16.9350 hc         1 E4H       0.073700
     29 HAC1        45.1700    56.2060    16.2480 hc         1 E4H       0.039700
     30 HAC2        46.1290    55.1190    15.2250 hc         1 E4H       0.039700
     31 HAC3        44.6210    55.8220    14.6020 hc         1 E4H       0.039700
     32 HAI         42.2770    54.9940    14.4770 ha         1 E4H       0.188000
     33 HAJ         40.1670    54.5450    16.6870 ha         1 E4H       0.190000
     34 HAP         38.5470    55.0320    15.0690 hc         1 E4H       0.065700
     35 HAB1        39.9850    56.7700    13.9400 hc         1 E4H       0.041033
     36 HAB2        40.6350    55.5040    12.8750 hc         1 E4H       0.041033
     37 HAB3        38.9080    55.9090    12.8320 hc         1 E4H       0.041033
     38 HAU         39.0070    52.6760    14.9280 h1         1 E4H       0.074700
     39 HAK1        38.2370    52.0370    12.6460 hc         1 E4H       0.053200
     40 HAK2        38.5400    53.6600    12.0520 hc         1 E4H       0.053200
     41 HAA1        36.5010    52.9410    14.2520 hc         1 E4H       0.037700
     42 HAA2        36.7390    54.5610    13.5530 hc         1 E4H       0.037700
     43 HAA3        36.1090    53.2450    12.5470 hc         1 E4H       0.037700
     44 HAS         42.7100    52.1530    12.6850 hc         1 E4H       0.086700
     45 HAE1        41.4970    50.5710    11.1660 hc         1 E4H       0.046367
     46 HAE2        43.1850    50.1020    11.4010 hc         1 E4H       0.046367
     47 HAE3        41.8920    49.2270    12.2560 hc         1 E4H       0.046367
     48 HAT         42.7820    49.8440    14.6800 h1         1 E4H       0.049700
     49 HOAH        44.3830    49.6240    13.1030 ho         1 E4H       0.441000
@<TRIPOS>BOND
     1     1     2 1   
     2     1    22 1   
     3     1    23 1   
     4     1    24 1   
     5     2     3 1   
     6     2    20 1   
     7     2    25 1   
     8     3     4 1   
     9     3    26 1   
    10     3    27 1   
    11     4     5 1   
    12     4     6 1   
    13     4    28 1   
    14     5    29 1   
    15     5    30 1   
    16     5    31 1   
    17     6     7 2   
    18     6     8 1   
    19     8     9 2   
    20     8    32 1   
    21     9    10 1   
    22     9    33 1   
    23    10    11 1   
    24    10    12 1   
    25    10    34 1   
    26    11    35 1   
    27    11    36 1   
    28    11    37 1   
    29    12    13 1   
    30    12    15 1   
    31    12    38 1   
    32    13    14 1   
    33    13    39 1   
    34    13    40 1   
    35    14    41 1   
    36    14    42 1   
    37    14    43 1   
    38    15    16 1   
    39    16    17 2   
    40    16    18 1   
    41    18    19 1   
    42    18    20 1   
    43    18    44 1   
    44    19    45 1   
    45    19    46 1   
    46    19    47 1   
    47    20    21 1   
    48    20    48 1   
    49    21    49 1   
@<TRIPOS>SUBSTRUCTURE
     1 E4H         1 TEMP              0 ****  ****    0 ROOT
