@<TRIPOS>MOLECULE
E4H
   49    49     1     0     0
SMALL
abcg2


@<TRIPOS>ATOM
      1 CAD         44.3950    51.0190    16.5370 c3         1 E4H      -0.086100
      2 CAR         43.5970    51.7330    15.4430 c3         1 E4H      -0.056700
      3 CAL         44.2690    53.0460    15.0120 c3         1 E4H      -0.060400
      4 CAQ         44.2280    54.1510    16.0860 c3         1 E4H      -0.162700
      5 CAC         44.9170    55.4300    15.5910 c3         1 E4H      -0.081100
      6 CAN         42.7980    54.4350    16.5170 c          1 E4H       0.567300
      7 OAF         42.4600    54.3310    17.6890 o          1 E4H      -0.529100
      8 CAI         41.8430    54.7890    15.4470 ce         1 E4H      -0.303200
      9 CAJ         40.5410    54.5170    15.5480 c2         1 E4H      -0.148200
     10 CAP         39.5270    54.6670    14.4540 c3         1 E4H      -0.042500
     11 CAB         39.9290    55.6420    13.3490 c3         1 E4H      -0.083100
     12 CAU         39.1920    53.2530    13.9240 c3         1 E4H       0.174300
     13 CAK         38.1220    53.1870    12.8450 c3         1 E4H      -0.085400
     14 CAA         36.7670    53.7150    13.3110 c3         1 E4H      -0.089100
     15 OAM         40.4190    52.7120    13.3570 os         1 E4H      -0.458100
     16 CAO         40.9780    51.6270    13.9070 c          1 E4H       0.599100
     17 OAG         40.4700    50.9770    14.7960 o          1 E4H      -0.490000
     18 CAS         42.2970    51.2960    13.2450 c3         1 E4H      -0.153700
     19 CAE         42.0330    50.2610    12.1390 c3         1 E4H      -0.089100
     20 CAT         43.3270    50.7790    14.2710 c3         1 E4H       0.185300
     21 OAH         44.5740    50.5140    13.6170 oh         1 E4H      -0.663000
     22 HAD1        45.3960    50.7640    16.1830 hc         1 E4H       0.040367
     23 HAD2        44.4980    51.6450    17.4230 hc         1 E4H       0.040367
     24 HAD3        43.8950    50.0960    16.8370 hc         1 E4H       0.040367
     25 HAR         42.6150    51.9690    15.8600 hc         1 E4H       0.057700
     26 HAL1        45.3160    52.8580    14.7630 hc         1 E4H       0.051200
     27 HAL2        43.8010    53.4320    14.1050 hc         1 E4H       0.051200
     28 HAQ         44.7450    53.8070    16.9830 hc         1 E4H       0.073700
     29 HAC1        44.8830    56.2150    16.3480 hc         1 E4H       0.039700
     30 HAC2        45.9640    55.2160    15.3690 hc         1 E4H       0.039700
     31 HAC3        44.4520    55.8100    14.6800 hc         1 E4H       0.039700
     32 HAI         42.2530    55.1750    14.5230 ha         1 E4H       0.188000
     33 HAJ         40.1810    54.0650    16.4680 ha         1 E4H       0.190000
     34 HAP         38.6040    55.0240    14.9220 hc         1 E4H       0.065700
     35 HAB1        40.2040    56.6060    13.7780 hc         1 E4H       0.041033
     36 HAB2        40.7770    55.2710    12.7740 hc         1 E4H       0.041033
     37 HAB3        39.1000    55.8060    12.6600 hc         1 E4H       0.041033
     38 HAU         38.9030    52.6220    14.7630 h1         1 E4H       0.074700
     39 HAK1        38.0270    52.1380    12.5530 hc         1 E4H       0.053200
     40 HAK2        38.4600    53.7300    11.9610 hc         1 E4H       0.053200
     41 HAA1        36.4390    53.2060    14.2200 hc         1 E4H       0.037700
     42 HAA2        36.8010    54.7850    13.5180 hc         1 E4H       0.037700
     43 HAA3        36.0120    53.5500    12.5410 hc         1 E4H       0.037700
     44 HAS         42.6790    52.2060    12.7840 hc         1 E4H       0.086700
     45 HAE1        41.2840    50.6280    11.4360 hc         1 E4H       0.046367
     46 HAE2        42.9470    50.0660    11.5790 hc         1 E4H       0.046367
     47 HAE3        41.6770    49.3220    12.5670 hc         1 E4H       0.046367
     48 HAT         42.9360    49.8460    14.6900 h1         1 E4H       0.049700
     49 HOAH        44.5040    49.6820    13.1370 ho         1 E4H       0.441000
@<TRIPOS>BOND
     1     1     2 1   
     2     1    22 1   
     3     1    23 1   
     4     1    24 1   
     5     2     3 1   
     6     2    20 1   
     7     2    25 1   
     8     3     4 1   
     9     3    26 1   
    10     3    27 1   
    11     4     5 1   
    12     4     6 1   
    13     4    28 1   
    14     5    29 1   
    15     5    30 1   
    16     5    31 1   
    17     6     7 2   
    18     6     8 1   
    19     8     9 2   
    20     8    32 1   
    21     9    10 1   
    22     9    33 1   
    23    10    11 1   
    24    10    12 1   
    25    10    34 1   
    26    11    35 1   
    27    11    36 1   
    28    11    37 1   
    29    12    13 1   
    30    12    15 1   
    31    12    38 1   
    32    13    14 1   
    33    13    39 1   
    34    13    40 1   
    35    14    41 1   
    36    14    42 1   
    37    14    43 1   
    38    15    16 1   
    39    16    17 2   
    40    16    18 1   
    41    18    19 1   
    42    18    20 1   
    43    18    44 1   
    44    19    45 1   
    45    19    46 1   
    46    19    47 1   
    47    20    21 1   
    48    20    48 1   
    49    21    49 1   
@<TRIPOS>SUBSTRUCTURE
     1 E4H         1 TEMP              0 ****  ****    0 ROOT
