@<TRIPOS>MOLECULE
E4I
   17    17     1     0     0
SMALL
abcg2


@<TRIPOS>ATOM
      1 C1          15.4560     8.3470    17.1470 cc         1 E4I       0.389400
      2 C2          15.1770     6.2610    17.0840 cd         1 E4I      -0.030100
      3 C3          13.9840     6.8000    16.6910 cc         1 E4I      -0.096000
      4 N           14.1830     8.1410    16.7320 na         1 E4I      -0.154500
      5 C           13.2100     9.1680    16.4150 c3         1 E4I       0.049900
      6 O           16.8410     4.3250    16.6090 o          1 E4I      -0.532500
      7 N1          16.0890     7.2270    17.3660 nd         1 E4I      -0.600000
      8 N2          15.7350     4.2080    18.8220 n8         1 E4I      -0.992100
      9 O1          14.3710     3.8410    16.7710 o          1 E4I      -0.532500
     10 S           15.5480     4.5610    17.2260 sy         1 E4I       1.118200
     11 H3          15.8670     9.3380    17.2660 h5         1 E4I       0.062100
     12 H4          13.0510     6.3570    16.3860 h4         1 E4I       0.182000
     13 H2          12.8670     9.6630    17.3210 h1         1 E4I       0.061367
     14 H           13.6520     9.9030    15.7470 h1         1 E4I       0.061367
     15 H1          12.3600     8.7100    15.9190 h1         1 E4I       0.061367
     16 H6          16.5400     4.6580    19.2420 hn         1 E4I       0.475500
     17 H5          14.8990     4.3690    19.3730 hn         1 E4I       0.475500
@<TRIPOS>BOND
     1     1     4 1   
     2     1     7 2   
     3     1    11 1   
     4     2     3 2   
     5     2     7 1   
     6     2    10 1   
     7     3     4 1   
     8     3    12 1   
     9     4     5 1   
    10     5    13 1   
    11     5    14 1   
    12     5    15 1   
    13     6    10 2   
    14     8    10 1   
    15     8    16 1   
    16     8    17 1   
    17     9    10 2   
@<TRIPOS>SUBSTRUCTURE
     1 E4I         1 TEMP              0 ****  ****    0 ROOT
