@<TRIPOS>MOLECULE
E4I
   17    17     1     0     0
SMALL
No Charge or Current Charge


@<TRIPOS>ATOM
      1 C1          14.6500     8.2830    18.0590 cc         1 E4I       0.389400
      2 C2          14.7520     6.1970    17.4710 cd         1 E4I      -0.030100
      3 C3          14.1940     6.8620    16.4050 cc         1 E4I      -0.096000
      4 N           14.1210     8.1850    16.7880 na         1 E4I      -0.154500
      5 C           13.5910     9.2940    15.9820 c3         1 E4I       0.049900
      6 O           15.1300     3.8600    16.1380 o          1 E4I      -0.532500
      7 N1          15.0480     7.0960    18.4960 nd         1 E4I      -0.600000
      8 N2          16.6520     4.3720    18.0390 n8         1 E4I      -0.992100
      9 O1          14.3620     3.7720    18.5830 o          1 E4I      -0.532500
     10 S           15.1040     4.4110    17.4950 sy         1 E4I       1.118200
     11 H3          14.7190     9.2240    18.5920 h5         1 E4I       0.062100
     12 H4          13.8560     6.5010    15.4390 h4         1 E4I       0.182000
     13 H2          13.2630    10.1100    16.6390 h1         1 E4I       0.061367
     14 H           14.3730     9.6650    15.3080 h1         1 E4I       0.061367
     15 H1          12.7370     8.9460    15.3890 h1         1 E4I       0.061367
     16 H6          16.7350     5.3110    18.4290 hn         1 E4I       0.475500
     17 H5          16.5440     3.7860    18.8630 hn         1 E4I       0.475500
@<TRIPOS>BOND
     1     1     4 1   
     2     1     7 2   
     3     1    11 1   
     4     2     3 2   
     5     2     7 1   
     6     2    10 1   
     7     3     4 1   
     8     3    12 1   
     9     4     5 1   
    10     5    13 1   
    11     5    14 1   
    12     5    15 1   
    13     6    10 2   
    14     8    10 1   
    15     8    16 1   
    16     8    17 1   
    17     9    10 2   
@<TRIPOS>SUBSTRUCTURE
     1 E4I         1 TEMP              0 ****  ****    0 ROOT
