@<TRIPOS>MOLECULE
E4J
   78    79     1     0     0
SMALL
bcc


@<TRIPOS>ATOM
      1 C3          30.3860     6.8210    14.2300 c3         1 E4J       0.083700
      2 C5          30.7650     5.5450    13.4630 c3         1 E4J       0.132100
      3 O7          31.5470     4.6720    14.2500 oh         1 E4J      -0.603800
      4 C12         29.8360     3.5310    12.1640 c3         1 E4J      -0.134700
      5 C18         30.7080     3.8920    10.9730 c          1 E4J       0.661100
      6 C14         28.5400     2.8770    11.6960 c3         1 E4J      -0.079100
      7 C22         33.0050     3.8260    10.0830 c3         1 E4J       0.099000
      8 C25         34.1310     2.8030    10.1170 c3         1 E4J      -0.092400
      9 C28         35.2300     3.0830     9.0960 c3         1 E4J      -0.072400
     10 C31         36.0170     4.3610     9.3630 c3         1 E4J      -0.091100
     11 C35         31.6250     7.6390    14.6190 c3         1 E4J      -0.048100
     12 C38         31.2780     8.8560    15.4310 ca         1 E4J      -0.079300
     13 C39         31.6660     8.9540    16.7650 ca         1 E4J      -0.123000
     14 C41         31.3170    10.0590    17.5320 ca         1 E4J      -0.127000
     15 C43         30.5650    11.0830    16.9740 ca         1 E4J      -0.126000
     16 C45         30.1790    11.0000    15.6410 ca         1 E4J      -0.127000
     17 C47         30.5350     9.8980    14.8780 ca         1 E4J      -0.123000
     18 C51         27.7110     6.5790    16.8800 ca         1 E4J      -0.034600
     19 C52         28.3310     7.1490    17.9730 ca         1 E4J      -0.350300
     20 C54         27.7150     6.9900    19.2320 ca         1 E4J       0.737200
     21 C56         26.0380     5.7220    18.3130 ca         1 E4J       0.702600
     22 C57         26.5290     5.8580    17.0170 ca         1 E4J      -0.353300
     23 C60         24.2500     4.3510    17.5780 c3         1 E4J       0.128700
     24 C66         29.3440     8.4220    20.4770 c3         1 E4J       0.236800
     25 C69         30.6040     7.7300    20.9860 c3         1 E4J      -0.100400
     26 C72         31.1250     6.6200    20.0830 c3         1 E4J      -0.075400
     27 C75         32.3930     5.9770    20.6270 c3         1 E4J      -0.090100
     28 C9          29.5340     4.7880    12.9890 c3         1 E4J      -0.066400
     29 N1          29.5970     6.5400    15.4090 ns         1 E4J      -0.557900
     30 N20         31.9880     3.5010    11.0620 ns         1 E4J      -0.577900
     31 N55         26.6010     6.2710    19.3730 nb         1 E4J      -0.789000
     32 N64         28.1960     7.5560    20.3590 nu         1 E4J      -0.888900
     33 O19         30.2640     4.5080    10.0110 o          1 E4J      -0.608100
     34 O50         27.5700     7.1410    14.5830 o          1 E4J      -0.597100
     35 O59         24.9370     5.0240    18.6170 os         1 E4J      -0.426100
     36 H1          29.7660     7.4250    13.5660 h1         1 E4J       0.091700
     37 H2          31.3290     5.8850    12.5820 h1         1 E4J       0.039700
     38 H3          32.4590     4.9750    14.2470 ho         1 E4J       0.400000
     39 H4          30.3720     2.8230    12.8000 hc         1 E4J       0.060700
     40 H5          27.9310     2.5920    12.5550 hc         1 E4J       0.043367
     41 H6          27.9540     3.5590    11.0810 hc         1 E4J       0.043367
     42 H7          28.7330     1.9740    11.1160 hc         1 E4J       0.043367
     43 H8          33.3930     4.8330    10.2670 h1         1 E4J       0.051200
     44 H9          32.5460     3.8390     9.0940 h1         1 E4J       0.051200
     45 H10         33.7090     1.8120     9.9320 hc         1 E4J       0.041700
     46 H11         34.5710     2.7730    11.1200 hc         1 E4J       0.041700
     47 H12         34.7940     3.1200     8.0940 hc         1 E4J       0.042200
     48 H13         35.9190     2.2350     9.0940 hc         1 E4J       0.042200
     49 H14         36.8270     4.4790     8.6430 hc         1 E4J       0.033033
     50 H15         35.3910     5.2520     9.2960 hc         1 E4J       0.033033
     51 H16         36.4610     4.3460    10.3610 hc         1 E4J       0.033033
     52 H17         32.3190     7.0170    15.1910 hc         1 E4J       0.050200
     53 H18         32.1430     7.9300    13.7010 hc         1 E4J       0.050200
     54 H19         32.2540     8.1590    17.2090 ha         1 E4J       0.130000
     55 H20         31.6360    10.1210    18.5650 ha         1 E4J       0.131500
     56 H21         30.2870    11.9430    17.5700 ha         1 E4J       0.132000
     57 H22         29.6010    11.7980    15.1940 ha         1 E4J       0.131500
     58 H23         30.2320     9.8480    13.8390 ha         1 E4J       0.130000
     59 H24         29.2350     7.7280    17.8520 ha         1 E4J       0.150000
     60 H25         26.0460     5.4200    16.1570 ha         1 E4J       0.159000
     61 H26         23.4170     3.8320    18.0460 h1         1 E4J       0.044700
     62 H27         23.8560     5.0460    16.8320 h1         1 E4J       0.044700
     63 H28         24.8870     3.6180    17.0790 h1         1 E4J       0.044700
     64 H29         29.5390     8.8960    19.5140 h1         1 E4J       0.050700
     65 H30         29.0810     9.2340    21.1590 h1         1 E4J       0.050700
     66 H31         31.3770     8.4950    21.1120 hc         1 E4J       0.044700
     67 H32         30.4120     7.3270    21.9860 hc         1 E4J       0.044700
     68 H33         30.3550     5.8550    19.9570 hc         1 E4J       0.041700
     69 H34         31.3230     7.0210    19.0840 hc         1 E4J       0.041700
     70 H35         32.7450     5.1760    19.9750 hc         1 E4J       0.032700
     71 H36         33.1990     6.7070    20.7180 hc         1 E4J       0.032700
     72 H37         32.2250     5.5460    21.6150 hc         1 E4J       0.032700
     73 H38         28.9110     5.4700    12.4040 hc         1 E4J       0.069700
     74 H39         28.9360     4.4830    13.8520 hc         1 E4J       0.069700
     75 H40         30.0740     6.1690    16.2160 hn         1 E4J       0.324500
     76 H41         32.2930     3.0810    11.9260 hn         1 E4J       0.312500
     77 H42         27.6760     7.3570    21.1980 hn         1 E4J       0.446800
     78 C49         28.2810     6.7800    15.5090 c          1 E4J       0.677700
@<TRIPOS>BOND
     1     1     2 1   
     2     1    11 1   
     3     1    29 1   
     4     1    36 1   
     5     2     3 1   
     6     2    28 1   
     7     2    37 1   
     8     3    38 1   
     9     4     5 1   
    10     4     6 1   
    11     4    28 1   
    12     4    39 1   
    13     5    30 1   
    14     5    33 2   
    15     6    40 1   
    16     6    41 1   
    17     6    42 1   
    18     7     8 1   
    19     7    30 1   
    20     7    43 1   
    21     7    44 1   
    22     8     9 1   
    23     8    45 1   
    24     8    46 1   
    25     9    10 1   
    26     9    47 1   
    27     9    48 1   
    28    10    49 1   
    29    10    50 1   
    30    10    51 1   
    31    11    12 1   
    32    11    52 1   
    33    11    53 1   
    34    12    13 ar  
    35    12    17 ar  
    36    13    14 ar  
    37    13    54 1   
    38    14    15 ar  
    39    14    55 1   
    40    15    16 ar  
    41    15    56 1   
    42    16    17 ar  
    43    16    57 1   
    44    17    58 1   
    45    18    19 ar  
    46    18    22 ar  
    47    18    78 1   
    48    19    20 ar  
    49    19    59 1   
    50    20    31 ar  
    51    20    32 1   
    52    21    22 ar  
    53    21    31 ar  
    54    21    35 1   
    55    22    60 1   
    56    23    35 1   
    57    23    61 1   
    58    23    62 1   
    59    23    63 1   
    60    24    25 1   
    61    24    32 1   
    62    24    64 1   
    63    24    65 1   
    64    25    26 1   
    65    25    66 1   
    66    25    67 1   
    67    26    27 1   
    68    26    68 1   
    69    26    69 1   
    70    27    70 1   
    71    27    71 1   
    72    27    72 1   
    73    28    73 1   
    74    28    74 1   
    75    29    75 1   
    76    29    78 1   
    77    30    76 1   
    78    32    77 1   
    79    34    78 2   
@<TRIPOS>SUBSTRUCTURE
     1 E4J         1 TEMP              0 ****  ****    0 ROOT
