@<TRIPOS>MOLECULE
E4J
   78    79     1     0     0
SMALL
No Charge or Current Charge


@<TRIPOS>ATOM
      1 C3          30.0720     7.3470    14.1100 c3         1 E4J       0.083700
      2 C5          30.9300     6.0860    13.7820 c3         1 E4J       0.155300
      3 O7          32.0490     6.0000    14.6810 oh         1 E4J      -0.666000
      4 C12         30.8980     3.4760    13.5230 c3         1 E4J      -0.134700
      5 C18         31.5510     3.5740    12.1300 c          1 E4J       0.594100
      6 C14         30.0150     2.2110    13.6360 c3         1 E4J      -0.079100
      7 C22         33.7510     3.6290    10.9210 c3         1 E4J       0.099000
      8 C25         35.2470     3.7600    11.2700 c3         1 E4J      -0.092400
      9 C28         36.1810     3.8020    10.0380 c3         1 E4J      -0.072400
     10 C31         35.9840     5.0380     9.1360 c3         1 E4J      -0.091100
     11 C35         30.8060     8.6790    13.8080 c3         1 E4J      -0.048100
     12 C38         29.9370     9.9080    14.0580 ca         1 E4J      -0.079300
     13 C39         30.0540    10.6300    15.2630 ca         1 E4J      -0.105000
     14 C41         29.2450    11.7560    15.4950 ca         1 E4J      -0.109000
     15 C43         28.3160    12.1680    14.5250 ca         1 E4J      -0.108000
     16 C45         28.1960    11.4520    13.3220 ca         1 E4J      -0.109000
     17 C47         29.0040    10.3250    13.0900 ca         1 E4J      -0.105000
     18 C51         28.0740     7.2730    17.4190 ca         1 E4J      -0.034600
     19 C52         29.0930     6.8820    18.3110 ca         1 E4J      -0.267000
     20 C54         28.7670     6.6450    19.6470 ca         1 E4J       0.671900
     21 C56         26.5820     7.1890    19.3560 ca         1 E4J       0.637300
     22 C57         26.7890     7.4280    17.9800 ca         1 E4J      -0.270000
     23 C60         24.1840     7.7490    19.1980 c3         1 E4J       0.151900
     24 C66         30.9240     5.5140    20.3780 c3         1 E4J       0.236800
     25 C69         30.7080     4.0200    20.0350 c3         1 E4J      -0.100400
     26 C72         30.1950     3.7360    18.6010 c3         1 E4J      -0.075400
     27 C75         30.1570     2.2340    18.2590 c3         1 E4J      -0.090100
     28 C9          30.1080     4.7690    13.8780 c3         1 E4J      -0.066400
     29 N1          29.6130     7.3090    15.5050 ns         1 E4J      -0.490900
     30 N20         32.9260     3.5330    12.1240 ns         1 E4J      -0.510900
     31 N55         27.5660     6.7970    20.1770 nb         1 E4J      -0.789000
     32 N64         29.6570     6.2340    20.5900 nu         1 E4J      -0.944100
     33 O19         30.9020     3.6870    11.0990 o          1 E4J      -0.608100
     34 O50         27.4110     7.7660    15.1540 o          1 E4J      -0.597100
     35 O59         25.3440     7.3350    19.9410 os         1 E4J      -0.449300
     36 H1          29.1920     7.3120    13.4530 h1         1 E4J       0.091700
     37 H2          31.2900     6.1870    12.7490 h1         1 E4J       0.039700
     38 H3          32.6740     6.7170    14.4390 ho         1 E4J       0.439000
     39 H4          31.7000     3.3680    14.2640 hc         1 E4J       0.060700
     40 H5          29.6020     2.1130    14.6470 hc         1 E4J       0.043367
     41 H6          29.1790     2.2500    12.9270 hc         1 E4J       0.043367
     42 H7          30.6040     1.3100    13.4220 hc         1 E4J       0.043367
     43 H8          33.4260     4.5040    10.3420 h1         1 E4J       0.051200
     44 H9          33.5900     2.7310    10.3100 h1         1 E4J       0.051200
     45 H10         35.5380     2.9080    11.8970 hc         1 E4J       0.041700
     46 H11         35.4020     4.6630    11.8730 hc         1 E4J       0.041700
     47 H12         36.0380     2.8920     9.4410 hc         1 E4J       0.042200
     48 H13         37.2210     3.7870    10.3870 hc         1 E4J       0.042200
     49 H14         36.7250     5.0400     8.3270 hc         1 E4J       0.033033
     50 H15         34.9870     5.0400     8.6800 hc         1 E4J       0.033033
     51 H16         36.1060     5.9630     9.7130 hc         1 E4J       0.033033
     52 H17         31.7180     8.7400    14.4140 hc         1 E4J       0.050200
     53 H18         31.1380     8.6720    12.7620 hc         1 E4J       0.050200
     54 H19         30.7670    10.3160    16.0210 ha         1 E4J       0.112000
     55 H20         29.3390    12.3090    16.4280 ha         1 E4J       0.113500
     56 H21         27.6910    13.0390    14.7050 ha         1 E4J       0.114000
     57 H22         27.4760    11.7690    12.5700 ha         1 E4J       0.113500
     58 H23         28.9020     9.7740    12.1570 ha         1 E4J       0.112000
     59 H24         30.1150     6.7400    17.9840 ha         1 E4J       0.132000
     60 H25         25.9670     7.7290    17.3400 ha         1 E4J       0.141000
     61 H26         23.3090     7.8030    19.8580 h1         1 E4J       0.044700
     62 H27         24.3360     8.7430    18.7560 h1         1 E4J       0.044700
     63 H28         23.9570     7.0360    18.3950 h1         1 E4J       0.044700
     64 H29         31.5310     5.9980    19.6010 h1         1 E4J       0.050700
     65 H30         31.5070     5.5580    21.3080 h1         1 E4J       0.050700
     66 H31         31.6730     3.5120    20.1580 hc         1 E4J       0.044700
     67 H32         30.0270     3.5700    20.7680 hc         1 E4J       0.044700
     68 H33         29.1830     4.1390    18.4840 hc         1 E4J       0.041700
     69 H34         30.8360     4.2490    17.8730 hc         1 E4J       0.041700
     70 H35         29.7790     2.0840    17.2410 hc         1 E4J       0.032700
     71 H36         31.1600     1.7960    18.3200 hc         1 E4J       0.032700
     72 H37         29.5000     1.6950    18.9520 hc         1 E4J       0.032700
     73 H38         29.2420     4.8510    13.2100 hc         1 E4J       0.069700
     74 H39         29.7070     4.6660    14.8940 hc         1 E4J       0.069700
     75 H40         30.2920     7.0540    16.2090 hn         1 E4J       0.324500
     76 H41         33.3850     3.4540    13.0240 hn         1 E4J       0.312500
     77 H42         29.1870     6.0980    21.4790 hn         1 E4J       0.502000
     78 C49         28.3150     7.4860    15.9320 c          1 E4J       0.610700
@<TRIPOS>BOND
     1     1     2 1   
     2     1    11 1   
     3     1    29 1   
     4     1    36 1   
     5     2     3 1   
     6     2    28 1   
     7     2    37 1   
     8     3    38 1   
     9     4     5 1   
    10     4     6 1   
    11     4    28 1   
    12     4    39 1   
    13     5    30 1   
    14     5    33 2   
    15     6    40 1   
    16     6    41 1   
    17     6    42 1   
    18     7     8 1   
    19     7    30 1   
    20     7    43 1   
    21     7    44 1   
    22     8     9 1   
    23     8    45 1   
    24     8    46 1   
    25     9    10 1   
    26     9    47 1   
    27     9    48 1   
    28    10    49 1   
    29    10    50 1   
    30    10    51 1   
    31    11    12 1   
    32    11    52 1   
    33    11    53 1   
    34    12    13 ar  
    35    12    17 ar  
    36    13    14 ar  
    37    13    54 1   
    38    14    15 ar  
    39    14    55 1   
    40    15    16 ar  
    41    15    56 1   
    42    16    17 ar  
    43    16    57 1   
    44    17    58 1   
    45    18    19 ar  
    46    18    22 ar  
    47    18    78 1   
    48    19    20 ar  
    49    19    59 1   
    50    20    31 ar  
    51    20    32 1   
    52    21    22 ar  
    53    21    31 ar  
    54    21    35 1   
    55    22    60 1   
    56    23    35 1   
    57    23    61 1   
    58    23    62 1   
    59    23    63 1   
    60    24    25 1   
    61    24    32 1   
    62    24    64 1   
    63    24    65 1   
    64    25    26 1   
    65    25    66 1   
    66    25    67 1   
    67    26    27 1   
    68    26    68 1   
    69    26    69 1   
    70    27    70 1   
    71    27    71 1   
    72    27    72 1   
    73    28    73 1   
    74    28    74 1   
    75    29    75 1   
    76    29    78 1   
    77    30    76 1   
    78    32    77 1   
    79    34    78 2   
@<TRIPOS>SUBSTRUCTURE
     1 E4J         1 TEMP              0 ****  ****    0 ROOT
