@<TRIPOS>MOLECULE
E4K
   61    65     1     0     0
SMALL
No Charge or Current Charge


@<TRIPOS>ATOM
      1 C1           6.4130     0.0180    -0.0700 ca         1 E4K      -0.057300
      2 C2           7.5610     0.0070    -0.8870 ca         1 E4K      -0.119000
      3 C3           7.7970    -1.0520    -1.7790 ca         1 E4K      -0.117000
      4 C7           4.2330    -1.0890     0.6700 cp         1 E4K      -0.068000
      5 C8           4.0250    -2.0790     1.6690 ca         1 E4K      -0.108000
      6 C9           2.8360    -2.1050     2.4480 ca         1 E4K      -0.167000
      7 C10          1.8160    -1.1450     2.2450 ca         1 E4K      -0.067000
      8 C11          2.0290    -0.1830     1.2490 ca         1 E4K      -0.095800
      9 C12          3.1710    -0.1750     0.5230 ca         1 E4K      -0.054200
     10 C13          1.9360     1.5480    -0.3130 cc         1 E4K      -0.080300
     11 C14          1.2340     0.9170     0.7380 cd         1 E4K      -0.169400
     12 C15         -0.1290     1.2710     1.2930 c3         1 E4K       0.024800
     13 C16         -1.2700     0.5650     0.5320 c3         1 E4K      -0.079400
     14 C19         -5.5100     1.0590     1.6030 ca         1 E4K      -0.204000
     15 C20         -6.8940     1.1200     1.8220 ca         1 E4K      -0.077000
     16 C21         -7.7650     0.3810     1.0110 ca         1 E4K      -0.163000
     17 C22         -7.2660    -0.4260    -0.0270 ca         1 E4K      -0.046300
     18 C24         -5.2920    -1.3750    -1.3790 c6         1 E4K      -0.021100
     19 C27         -8.2620    -1.2200    -0.8830 c6         1 E4K      -0.027100
     20 O1           2.2780     3.1000    -2.0150 o          1 E4K      -0.709500
     21 C28          1.5020     2.7130    -1.1520 c          1 E4K       0.724200
     22 O2           0.4140     3.2410    -0.9750 o          1 E4K      -0.709500
     23 N            3.1510     0.8280    -0.4180 na         1 E4K      -0.192700
     24 C6           5.4740    -1.0500    -0.1580 cp         1 E4K      -0.017000
     25 C5           5.7370    -2.1130    -1.0540 ca         1 E4K      -0.096000
     26 C4           6.8860    -2.1150    -1.8600 ca         1 E4K      -0.124000
     27 C            6.2300     1.1780     0.9050 c3         1 E4K      -0.048800
     28 C17         -2.6630     0.9020     1.0950 c3         1 E4K       0.162600
     29 O           -3.6310     0.1750     0.3210 os         1 E4K      -0.347100
     30 C18         -4.9900     0.2500     0.5690 ca         1 E4K       0.163100
     31 C23         -5.8670    -0.5040    -0.2460 ca         1 E4K      -0.105300
     32 C25         -6.2960    -2.3980    -1.9570 c6         1 E4K      -0.074400
     33 C26         -7.6630    -1.7340    -2.2100 c6         1 E4K      -0.072400
     34 H1           8.2800     0.8210    -0.8270 ha         1 E4K       0.103000
     35 H2           8.6880    -1.0500    -2.4030 ha         1 E4K       0.100000
     36 H3           4.7930    -2.8290     1.8440 ha         1 E4K       0.093000
     37 H4           2.7070    -2.8720     3.2070 ha         1 E4K       0.090000
     38 H5           0.9000    -1.1640     2.8310 ha         1 E4K       0.101000
     39 H6          -0.1810     0.9810     2.3490 hc         1 E4K       0.040200
     40 H7          -0.2880     2.3550     1.2860 hc         1 E4K       0.040200
     41 H8          -1.2310     0.8520    -0.5250 hc         1 E4K       0.061200
     42 H9          -1.1150    -0.5190     0.5800 hc         1 E4K       0.061200
     43 H10         -4.8590     1.6460     2.2440 ha         1 E4K       0.121000
     44 H11         -7.2920     1.7430     2.6210 ha         1 E4K       0.102000
     45 H12         -8.8370     0.4370     1.1890 ha         1 E4K       0.100000
     46 H13         -4.9480    -0.7150    -2.1870 hc         1 E4K       0.059700
     47 H14         -4.4020    -1.9150    -1.0290 hc         1 E4K       0.059700
     48 H15         -8.6240    -2.0760    -0.2970 hc         1 E4K       0.040200
     49 H16         -9.1450    -0.6040    -1.1010 hc         1 E4K       0.040200
     50 H18          3.8840     1.0180    -1.0910 hn         1 E4K       0.370000
     51 H19          5.0330    -2.9390    -1.1260 ha         1 E4K       0.116000
     52 H20          7.0690    -2.9390    -2.5470 ha         1 E4K       0.102000
     53 H21          5.7130     0.8640     1.8190 hc         1 E4K       0.046033
     54 H22          7.1960     1.5970     1.2120 hc         1 E4K       0.046033
     55 H23          5.6490     1.9880     0.4500 hc         1 E4K       0.046033
     56 H24         -2.7120     0.6070     2.1510 h1         1 E4K       0.029700
     57 H25         -2.8370     1.9830     1.0190 h1         1 E4K       0.029700
     58 H26         -5.9020    -2.8230    -2.8900 hc         1 E4K       0.036200
     59 H27         -6.4170    -3.2350    -1.2560 hc         1 E4K       0.036200
     60 H28         -8.3520    -2.4480    -2.6800 hc         1 E4K       0.037700
     61 H29         -7.5440    -0.8980    -2.9140 hc         1 E4K       0.037700
@<TRIPOS>BOND
     1     1     2 ar  
     2     1    24 ar  
     3     1    27 1   
     4     2     3 ar  
     5     2    34 1   
     6     3    26 ar  
     7     3    35 1   
     8     4     5 ar  
     9     4     9 ar  
    10     4    24 1   
    11     5     6 ar  
    12     5    36 1   
    13     6     7 ar  
    14     6    37 1   
    15     7     8 ar  
    16     7    38 1   
    17     8     9 ar  
    18     8    11 1   
    19     9    23 1   
    20    10    11 2   
    21    10    21 1   
    22    10    23 1   
    23    11    12 1   
    24    12    13 1   
    25    12    39 1   
    26    12    40 1   
    27    13    28 1   
    28    13    41 1   
    29    13    42 1   
    30    14    15 ar  
    31    14    30 ar  
    32    14    43 1   
    33    15    16 ar  
    34    15    44 1   
    35    16    17 ar  
    36    16    45 1   
    37    17    19 1   
    38    17    31 ar  
    39    18    31 1   
    40    18    32 1   
    41    18    46 1   
    42    18    47 1   
    43    19    33 1   
    44    19    48 1   
    45    19    49 1   
    46    20    21 1   
    47    21    22 1   
    48    23    50 1   
    49    24    25 ar  
    50    25    26 ar  
    51    25    51 1   
    52    26    52 1   
    53    27    53 1   
    54    27    54 1   
    55    27    55 1   
    56    28    29 1   
    57    28    56 1   
    58    28    57 1   
    59    29    30 1   
    60    30    31 ar  
    61    32    33 1   
    62    32    58 1   
    63    32    59 1   
    64    33    60 1   
    65    33    61 1   
@<TRIPOS>SUBSTRUCTURE
     1 E4K         1 TEMP              0 ****  ****    0 ROOT
