@<TRIPOS>MOLECULE
E4K
   61    65     1     0     0
SMALL
abcg2


@<TRIPOS>ATOM
      1 C1           6.4000    -0.0100    -0.0290 ca         1 E4K      -0.057300
      2 C2           7.5030    -0.0420    -0.8810 ca         1 E4K      -0.119000
      3 C3           7.6550    -1.0390    -1.8350 ca         1 E4K      -0.117000
      4 C7           4.2240    -1.0340     0.7070 cp         1 E4K      -0.068000
      5 C8           4.0470    -1.9680     1.7130 ca         1 E4K      -0.108000
      6 C9           2.8840    -1.9950     2.5020 ca         1 E4K      -0.167000
      7 C10          1.8610    -1.0910     2.2980 ca         1 E4K      -0.067000
      8 C11          1.9970    -0.1350     1.2820 ca         1 E4K      -0.095800
      9 C12          3.1790    -0.1250     0.5070 ca         1 E4K      -0.054200
     10 C13          1.8410     1.4980    -0.2520 cc         1 E4K      -0.080300
     11 C14          1.1560     0.9120     0.7860 cd         1 E4K      -0.169400
     12 C15         -0.2150     1.2280     1.2860 c3         1 E4K       0.024800
     13 C16         -1.3000     0.4950     0.4960 c3         1 E4K      -0.079400
     14 C19         -5.4330     1.0620     1.5470 ca         1 E4K      -0.204000
     15 C20         -6.8050     1.1250     1.7680 ca         1 E4K      -0.077000
     16 C21         -7.6730     0.3960     0.9810 ca         1 E4K      -0.163000
     17 C22         -7.1880    -0.4240    -0.0420 ca         1 E4K      -0.046300
     18 C24         -5.2430    -1.3870    -1.3590 c6         1 E4K      -0.021100
     19 C27         -8.1720    -1.2110    -0.8720 c6         1 E4K      -0.027100
     20 O1           2.3680     2.9480    -1.9990 o          1 E4K      -0.709500
     21 C28          1.4860     2.6320    -1.1740 c          1 E4K       0.724200
     22 O2           0.3610     3.1440    -1.0350 o          1 E4K      -0.709500
     23 N            3.0520     0.8710    -0.4050 na         1 E4K      -0.192700
     24 C6           5.4290    -1.0140    -0.1550 cp         1 E4K      -0.017000
     25 C5           5.5910    -2.0160    -1.1100 ca         1 E4K      -0.096000
     26 C4           6.6970    -2.0350    -1.9480 ca         1 E4K      -0.124000
     27 C            6.2920     1.0550     1.0240 c3         1 E4K      -0.048800
     28 C17         -2.6820     0.8420     1.0070 c3         1 E4K       0.162600
     29 O           -3.6350     0.1340     0.2330 os         1 E4K      -0.347100
     30 C18         -4.9460     0.2510     0.5280 ca         1 E4K       0.163100
     31 C23         -5.8170    -0.5120    -0.2710 ca         1 E4K      -0.105300
     32 C25         -6.2530    -2.3710    -1.9370 c6         1 E4K      -0.074400
     33 C26         -7.5870    -1.6890    -2.1920 c6         1 E4K      -0.072400
     34 H1           8.2610     0.7270    -0.7880 ha         1 E4K       0.103000
     35 H2           8.5220    -1.0370    -2.4820 ha         1 E4K       0.100000
     36 H3           4.8300    -2.6940     1.8970 ha         1 E4K       0.093000
     37 H4           2.7960    -2.7410     3.2810 ha         1 E4K       0.090000
     38 H5           0.9690    -1.1230     2.9110 ha         1 E4K       0.101000
     39 H6          -0.2920     0.9560     2.3440 hc         1 E4K       0.040200
     40 H7          -0.3940     2.3020     1.2240 hc         1 E4K       0.040200
     41 H8          -1.2120     0.7710    -0.5570 hc         1 E4K       0.061200
     42 H9          -1.1440    -0.5850     0.5660 hc         1 E4K       0.061200
     43 H10         -4.7680     1.6470     2.1670 ha         1 E4K       0.121000
     44 H11         -7.1860     1.7560     2.5610 ha         1 E4K       0.102000
     45 H12         -8.7420     0.4590     1.1510 ha         1 E4K       0.100000
     46 H13         -4.8560    -0.7510    -2.1640 hc         1 E4K       0.059700
     47 H14         -4.3770    -1.9320    -0.9790 hc         1 E4K       0.059700
     48 H15         -8.5040    -2.0810    -0.2940 hc         1 E4K       0.040200
     49 H16         -9.0660    -0.6070    -1.0400 hc         1 E4K       0.040200
     50 H18          3.7170     1.1300    -1.1150 hn         1 E4K       0.370000
     51 H19          4.8350    -2.7860    -1.1980 ha         1 E4K       0.116000
     52 H20          6.8060    -2.8210    -2.6850 ha         1 E4K       0.102000
     53 H21          6.2050     0.6210     2.0210 hc         1 E4K       0.046033
     54 H22          7.1710     1.6980     1.0150 hc         1 E4K       0.046033
     55 H23          5.4180     1.6930     0.8810 hc         1 E4K       0.046033
     56 H24         -2.7740     0.5720     2.0660 h1         1 E4K       0.029700
     57 H25         -2.8520     1.9230     0.9300 h1         1 E4K       0.029700
     58 H26         -5.8510    -2.8050    -2.8540 hc         1 E4K       0.036200
     59 H27         -6.4030    -3.2000    -1.2380 hc         1 E4K       0.036200
     60 H28         -8.2860    -2.3710    -2.6810 hc         1 E4K       0.037700
     61 H29         -7.4460    -0.8420    -2.8710 hc         1 E4K       0.037700
@<TRIPOS>BOND
     1     1     2 ar  
     2     1    24 ar  
     3     1    27 1   
     4     2     3 ar  
     5     2    34 1   
     6     3    26 ar  
     7     3    35 1   
     8     4     5 ar  
     9     4     9 ar  
    10     4    24 1   
    11     5     6 ar  
    12     5    36 1   
    13     6     7 ar  
    14     6    37 1   
    15     7     8 ar  
    16     7    38 1   
    17     8     9 ar  
    18     8    11 1   
    19     9    23 1   
    20    10    11 2   
    21    10    21 1   
    22    10    23 1   
    23    11    12 1   
    24    12    13 1   
    25    12    39 1   
    26    12    40 1   
    27    13    28 1   
    28    13    41 1   
    29    13    42 1   
    30    14    15 ar  
    31    14    30 ar  
    32    14    43 1   
    33    15    16 ar  
    34    15    44 1   
    35    16    17 ar  
    36    16    45 1   
    37    17    19 1   
    38    17    31 ar  
    39    18    31 1   
    40    18    32 1   
    41    18    46 1   
    42    18    47 1   
    43    19    33 1   
    44    19    48 1   
    45    19    49 1   
    46    20    21 1   
    47    21    22 1   
    48    23    50 1   
    49    24    25 ar  
    50    25    26 ar  
    51    25    51 1   
    52    26    52 1   
    53    27    53 1   
    54    27    54 1   
    55    27    55 1   
    56    28    29 1   
    57    28    56 1   
    58    28    57 1   
    59    29    30 1   
    60    30    31 ar  
    61    32    33 1   
    62    32    58 1   
    63    32    59 1   
    64    33    60 1   
    65    33    61 1   
@<TRIPOS>SUBSTRUCTURE
     1 E4K         1 TEMP              0 ****  ****    0 ROOT
