@<TRIPOS>MOLECULE
E4N
   29    28     1     0     0
SMALL
No Charge or Current Charge


@<TRIPOS>ATOM
      1 N            0.0000    -0.0080    -0.0070 n4         1 E4N      -0.511000
      2 C11         -0.0070     1.2350    -0.9200 c3         1 E4N       0.100850
      3 C12         -0.0230     2.6200    -0.2440 c3         1 E4N      -0.121600
      4 C21          1.2440     0.0080     0.9060 c3         1 E4N       0.100850
      5 C22          2.6280     0.0170     0.2280 c3         1 E4N      -0.121600
      6 C31         -1.2530    -0.0140     0.8930 c3         1 E4N       0.100850
      7 C32         -2.6300    -0.0310     0.2020 c3         1 E4N      -0.121600
      8 C41          0.0160    -1.2620    -0.9060 c3         1 E4N       0.100850
      9 C42          0.0250    -2.6390    -0.2130 c3         1 E4N      -0.121600
     10 H111        -0.8830     1.1580    -1.5680 hx         1 E4N       0.090575
     11 H112         0.8770     1.1740    -1.5590 hx         1 E4N       0.090575
     12 H121        -0.0260     3.4080    -1.0050 hc         1 E4N       0.072450
     13 H122        -0.9170     2.7450     0.3770 hc         1 E4N       0.072450
     14 H123         0.8630     2.7610     0.3860 hc         1 E4N       0.072450
     15 H211         1.1670     0.8910     1.5440 hx         1 E4N       0.090575
     16 H212         1.1830    -0.8680     1.5540 hx         1 E4N       0.090575
     17 H221         3.4170     0.0290     0.9890 hc         1 E4N       0.072450
     18 H222         2.7690    -0.8750    -0.3920 hc         1 E4N       0.072450
     19 H223         2.7530     0.9040    -0.4020 hc         1 E4N       0.072450
     20 H311        -1.1830    -0.8900     1.5430 hx         1 E4N       0.090575
     21 H312        -1.1990     0.8700     1.5320 hx         1 E4N       0.090575
     22 H321        -2.7650     0.8540    -0.4300 hc         1 E4N       0.072450
     23 H322        -2.7490    -0.9260    -0.4190 hc         1 E4N       0.072450
     24 H323        -3.4270    -0.0340     0.9550 hc         1 E4N       0.072450
     25 H411        -0.8610    -1.2080    -1.5540 hx         1 E4N       0.090575
     26 H412         0.8980    -1.1920    -1.5460 hx         1 E4N       0.090575
     27 H421        -0.8670    -2.7730     0.4090 hc         1 E4N       0.072450
     28 H422         0.0360    -3.4360    -0.9650 hc         1 E4N       0.072450
     29 H423         0.9130    -2.7570     0.4180 hc         1 E4N       0.072450
@<TRIPOS>BOND
     1     1     2 1   
     2     1     4 1   
     3     1     6 1   
     4     1     8 1   
     5     2     3 1   
     6     2    10 1   
     7     2    11 1   
     8     3    12 1   
     9     3    13 1   
    10     3    14 1   
    11     4     5 1   
    12     4    15 1   
    13     4    16 1   
    14     5    17 1   
    15     5    18 1   
    16     5    19 1   
    17     6     7 1   
    18     6    20 1   
    19     6    21 1   
    20     7    22 1   
    21     7    23 1   
    22     7    24 1   
    23     8     9 1   
    24     8    25 1   
    25     8    26 1   
    26     9    27 1   
    27     9    28 1   
    28     9    29 1   
@<TRIPOS>SUBSTRUCTURE
     1 E4N         1 TEMP              0 ****  ****    0 ROOT
