@<TRIPOS>MOLECULE
E4O
   43    44     1     0     0
SMALL
bcc


@<TRIPOS>ATOM
      1 C4           2.6160    -0.0100     1.3070 ca         1 E4O       0.190400
      2 C5           2.7660     0.7940     0.1710 ca         1 E4O      -0.200600
      3 C6           3.8320     0.5890    -0.7040 ca         1 E4O      -0.045000
      4 C8           0.7460     1.0980     1.9280 cc         1 E4O       0.509800
      5 C10          1.7900     1.8450    -0.0990 c          1 E4O       0.718100
      6 C15         -1.3720     2.4200    -0.1460 c2         1 E4O      -0.188200
      7 C1           4.7470    -0.4060    -0.4520 ca         1 E4O      -0.002600
      8 C2           4.6000    -1.2160     0.6870 ca         1 E4O       0.058400
      9 C3           3.5510    -1.0220     1.5540 ca         1 E4O      -0.112000
     10 N7           1.5780     0.1590     2.1880 nd         1 E4O      -0.621100
     11 N9           0.8030     1.9460     0.8660 n          1 E4O      -0.401300
     12 CL1          6.0620    -0.6530    -1.5310 cl         1 E4O      -0.067400
     13 CL2          5.7370    -2.4620     1.0080 cl         1 E4O      -0.066400
     14 O13          1.8110     2.5780    -1.0690 o          1 E4O      -0.598500
     15 C16         -2.6260     2.3160     0.2760 c2         1 E4O      -0.170200
     16 C17         -3.7490     1.8290    -0.5810 c3         1 E4O       0.135200
     17 N18         -4.3980     0.6890     0.0330 ns         1 E4O      -0.584900
     18 C19         -5.6980     0.3890    -0.1430 c          1 E4O       0.685100
     19 C20         -6.1400    -0.9300     0.4920 c3         1 E4O       0.097500
     20 O21         -6.4650     1.1050    -0.7650 o          1 E4O      -0.569100
     21 C22         -5.5200    -2.0950    -0.3030 c3         1 E4O       0.108100
     22 C23         -5.9540    -3.4510     0.2300 c3         1 E4O      -0.136100
     23 N24         -7.5810    -0.9420     0.6050 n8         1 E4O      -0.866800
     24 O25         -5.8960    -1.9110    -1.6520 oh         1 E4O      -0.588800
     25 H1           3.9390     1.2150    -1.5800 ha         1 E4O       0.172000
     26 H2          -0.0880     1.2620     2.6010 h5         1 E4O       0.049800
     27 H3           0.1850     3.8380     0.2630 h1         1 E4O       0.072700
     28 H4          -0.6160     3.2180     1.6940 h1         1 E4O       0.072700
     29 H5          -1.1150     2.1220    -1.1590 ha         1 E4O       0.144000
     30 H6           3.4370    -1.6460     2.4300 ha         1 E4O       0.170000
     31 H7          -2.8850     2.6080     1.2910 ha         1 E4O       0.125000
     32 H8          -4.4920     2.6200    -0.6960 h1         1 E4O       0.064700
     33 H9          -3.3840     1.5830    -1.5830 h1         1 E4O       0.064700
     34 H10         -3.8090     0.0280     0.5140 hn         1 E4O       0.304500
     35 H11         -5.7240    -0.9800     1.5030 h1         1 E4O       0.066700
     36 H12         -4.4280    -2.0310    -0.1970 h1         1 E4O       0.027700
     37 H13         -7.0270    -3.6030     0.1150 hc         1 E4O       0.045367
     38 H14         -5.4440    -4.2540    -0.3050 hc         1 E4O       0.045367
     39 H15         -5.7040    -3.5540     1.2870 hc         1 E4O       0.045367
     40 H16         -8.0020    -1.0510    -0.3090 hn         1 E4O       0.356300
     41 H17         -7.8720    -1.7400     1.1540 hn         1 E4O       0.356300
     42 H19         -5.5590    -2.6500    -2.1670 ho         1 E4O       0.407000
     43 C14         -0.2590     2.9450     0.7020 c3         1 E4O       0.126200
@<TRIPOS>BOND
     1     1     2 ar  
     2     1     9 ar  
     3     1    10 1   
     4     2     3 ar  
     5     2     5 1   
     6     3     7 ar  
     7     3    25 1   
     8     4    10 2   
     9     4    11 1   
    10     4    26 1   
    11     5    11 1   
    12     5    14 2   
    13     6    15 2   
    14     6    29 1   
    15     6    43 1   
    16     7     8 ar  
    17     7    12 1   
    18     8     9 ar  
    19     8    13 1   
    20     9    30 1   
    21    11    43 1   
    22    15    16 1   
    23    15    31 1   
    24    16    17 1   
    25    16    32 1   
    26    16    33 1   
    27    17    18 1   
    28    17    34 1   
    29    18    19 1   
    30    18    20 2   
    31    19    21 1   
    32    19    23 1   
    33    19    35 1   
    34    21    22 1   
    35    21    24 1   
    36    21    36 1   
    37    22    37 1   
    38    22    38 1   
    39    22    39 1   
    40    23    40 1   
    41    23    41 1   
    42    24    42 1   
    43    27    43 1   
    44    28    43 1   
@<TRIPOS>SUBSTRUCTURE
     1 E4O         1 TEMP              0 ****  ****    0 ROOT
