@<TRIPOS>MOLECULE
E4O
   43    44     1     0     0
SMALL
No Charge or Current Charge


@<TRIPOS>ATOM
      1 C4           2.0550     0.4060     1.7570 ca         1 E4O       0.190400
      2 C5           1.8760     0.2350     0.3750 ca         1 E4O      -0.200600
      3 C6           2.4700    -0.8610    -0.2920 ca         1 E4O      -0.027000
      4 C8           0.7690     2.3190     1.7670 cc         1 E4O       0.509800
      5 C10          1.0550     1.2220    -0.3680 c          1 E4O       0.575600
      6 C15         -1.7510     2.8390    -0.3350 c2         1 E4O      -0.238200
      7 C1           3.2440    -1.7880     0.4230 ca         1 E4O       0.089000
      8 C2           3.4260    -1.6200     1.8080 ca         1 E4O       0.150000
      9 C3           2.8330    -0.5290     2.4630 ca         1 E4O      -0.094000
     10 N7           1.4980     1.4620     2.4880 nd         1 E4O      -0.621100
     11 N9           0.5320     2.2570     0.4020 n          1 E4O      -0.334300
     12 Cl1          3.9730    -3.1460    -0.4370 cl         1 E4O      -0.159000
     13 Cl2          4.3920    -2.7610     2.7450 cl         1 E4O      -0.158000
     14 O13          0.8560     1.1260    -1.5720 o          1 E4O      -0.523000
     15 C16         -2.6570     2.9330     0.6540 c2         1 E4O      -0.220200
     16 C17         -4.0890     2.4650     0.5660 c3         1 E4O       0.135200
     17 N18         -4.1130     1.0100     0.4890 ns         1 E4O      -0.517900
     18 C19         -5.2550     0.2570     0.2990 c          1 E4O       0.618100
     19 C20         -5.0300    -1.2990     0.2650 c3         1 E4O       0.097500
     20 O21         -6.3590     0.7840     0.2160 o          1 E4O      -0.569100
     21 C22         -5.0370    -1.8090    -1.2130 c3         1 E4O       0.131300
     22 C23         -4.3210    -3.1660    -1.3860 c3         1 E4O      -0.136100
     23 N24         -5.9560    -2.1140     1.1390 n8         1 E4O      -0.977200
     24 O25         -6.3830    -1.9450    -1.6940 oh         1 E4O      -0.651000
     25 H1           2.3340    -0.9980    -1.3620 ha         1 E4O       0.154000
     26 H2           0.2990     3.1610     2.2600 h5         1 E4O       0.049800
     27 H3           0.0800     3.5010    -1.2510 h1         1 E4O       0.072700
     28 H4          -0.2440     4.2210     0.3230 h1         1 E4O       0.072700
     29 H5          -2.0230     2.4030    -1.2990 ha         1 E4O       0.194000
     30 H6           2.9780    -0.4070     3.5330 ha         1 E4O       0.152000
     31 H7          -2.3880     3.3660     1.6200 ha         1 E4O       0.175000
     32 H8          -4.6540     2.7900     1.4510 h1         1 E4O       0.064700
     33 H9          -4.5710     2.8850    -0.3280 h1         1 E4O       0.064700
     34 H10         -3.2350     0.5120     0.5720 hn         1 E4O       0.304500
     35 H11         -4.0140    -1.4560     0.6530 h1         1 E4O       0.066700
     36 H12         -4.4960    -1.0750    -1.8260 h1         1 E4O       0.027700
     37 H13         -4.8280    -3.9600    -0.8250 hc         1 E4O       0.045367
     38 H14         -4.2940    -3.4570    -2.4430 hc         1 E4O       0.045367
     39 H15         -3.2860    -3.1010    -1.0300 hc         1 E4O       0.045367
     40 H16         -6.9000    -2.0140     0.7440 hn         1 E4O       0.411500
     41 H17         -5.7590    -3.1090     0.9850 hn         1 E4O       0.411500
     42 H19         -6.3280    -2.2320    -2.6320 ho         1 E4O       0.446000
     43 C14         -0.3080     3.2830    -0.2470 c3         1 E4O       0.126200
@<TRIPOS>BOND
     1     1     2 ar  
     2     1     9 ar  
     3     1    10 1   
     4     2     3 ar  
     5     2     5 1   
     6     3     7 ar  
     7     3    25 1   
     8     4    10 2   
     9     4    11 1   
    10     4    26 1   
    11     5    11 1   
    12     5    14 2   
    13     6    15 2   
    14     6    29 1   
    15     6    43 1   
    16     7     8 ar  
    17     7    12 1   
    18     8     9 ar  
    19     8    13 1   
    20     9    30 1   
    21    11    43 1   
    22    15    16 1   
    23    15    31 1   
    24    16    17 1   
    25    16    32 1   
    26    16    33 1   
    27    17    18 1   
    28    17    34 1   
    29    18    19 1   
    30    18    20 2   
    31    19    21 1   
    32    19    23 1   
    33    19    35 1   
    34    21    22 1   
    35    21    24 1   
    36    21    36 1   
    37    22    37 1   
    38    22    38 1   
    39    22    39 1   
    40    23    40 1   
    41    23    41 1   
    42    24    42 1   
    43    27    43 1   
    44    28    43 1   
@<TRIPOS>SUBSTRUCTURE
     1 E4O         1 TEMP              0 ****  ****    0 ROOT
