@<TRIPOS>MOLECULE
E4Q
   77    82     1     0     0
SMALL
abcg2


@<TRIPOS>ATOM
      1 C1          -3.6200    12.6790     8.3850 cc         1 E4Q      -0.142300
      2 C2          -2.8640    13.2730     7.3890 cd         1 E4Q      -0.207000
      3 C3          -2.4550    12.2210     6.5480 cd         1 E4Q       0.262300
      4 C7          -3.2570    14.5480     2.7670 cc         1 E4Q       0.274300
      5 C8          -2.2530    15.5310     2.9430 cc         1 E4Q      -0.128000
      6 C9          -2.1870    16.1970     1.7260 cd         1 E4Q      -0.119300
      7 C11         -1.3300    17.3320     1.2910 c3         1 E4Q      -0.034800
      8 C12         -1.4210    15.7540     4.1340 ca         1 E4Q      -0.032000
      9 C13         -1.9440    16.1870     5.3480 ca         1 E4Q      -0.113000
     10 C14         -1.1380    16.3450     6.4900 ca         1 E4Q      -0.173000
     11 C15          0.2170    16.0680     6.4580 ca         1 E4Q      -0.062000
     12 C16          0.7900    15.6340     5.2530 ca         1 E4Q      -0.100800
     13 C19          2.1210    15.2590     4.8630 cc         1 E4Q      -0.169400
     14 C20          3.3040    15.2330     5.7800 c3         1 E4Q       0.028800
     15 C21          3.7410    13.8210     6.2000 c3         1 E4Q      -0.076400
     16 C22          2.6430    12.9580     6.7820 c3         1 E4Q       0.164600
     17 C24          0.6650    11.7130     8.3600 ca         1 E4Q      -0.219000
     18 C27         -0.4920    13.1500    10.4780 ca         1 E4Q       0.000000
     19 C30          0.3960    15.7590    11.0340 ca         1 E4Q      -0.144000
     20 C31         -0.6450    15.1840    11.7940 ca         1 E4Q      -0.101000
     21 C32         -1.0730    13.9090    11.5220 ca         1 E4Q      -0.125000
     22 O1           2.6710    14.2330     1.3690 o          1 E4Q      -0.714500
     23 O2           4.2760    14.3500     2.9410 o          1 E4Q      -0.714500
     24 C18          2.0540    14.9070     3.5270 cd         1 E4Q      -0.077300
     25 O            2.1250    13.5960     7.9570 os         1 E4Q      -0.352100
     26 C23          1.1270    12.9800     8.6370 ca         1 E4Q       0.182100
     27 C28          0.5540    13.7380     9.7060 ca         1 E4Q      -0.062000
     28 C29          0.9830    15.0500    10.0140 ca         1 E4Q      -0.057000
     29 C26         -0.9290    11.8350    10.1790 ca         1 E4Q      -0.165000
     30 C25         -0.3620    11.1460     9.1440 ca         1 E4Q      -0.046000
     31 N4           0.7470    15.0450     3.0910 na         1 E4Q      -0.197700
     32 C17         -0.0440    15.4900     4.1100 ca         1 E4Q      -0.055200
     33 N2          -3.1120    15.6170     0.9210 na         1 E4Q       0.113800
     34 N3          -3.7760    14.6140     1.5400 nd         1 E4Q      -0.533800
     35 C6          -3.6820    13.4790     3.7100 c3         1 E4Q       0.054300
     36 S           -2.5220    12.0450     3.7470 ss         1 E4Q      -0.451000
     37 C5          -1.6110    12.3050     5.3250 c3         1 E4Q       0.049300
     38 N           -2.9310    11.0540     6.9870 nc         1 E4Q      -0.519800
     39 N1          -3.6440    11.3540     8.0970 na         1 E4Q       0.111800
     40 C4          -4.2330    10.2950     8.8890 c3         1 E4Q       0.077900
     41 C           -4.2960    13.2660     9.5730 c3         1 E4Q      -0.022800
     42 H1          -2.6230    14.3160     7.2940 ha         1 E4Q       0.159000
     43 H2          -4.0660    15.2160    -0.8620 h1         1 E4Q       0.050033
     44 H3          -4.0610    16.9360    -0.4140 h1         1 E4Q       0.050033
     45 H4          -2.5780    16.1710    -1.0220 h1         1 E4Q       0.050033
     46 H5          -1.9280    18.1680     0.9210 hc         1 E4Q       0.054367
     47 H6          -0.7310    17.6830     2.1300 hc         1 E4Q       0.054367
     48 H7          -0.6500    17.0320     0.4890 hc         1 E4Q       0.054367
     49 H8          -3.0040    16.3990     5.4100 ha         1 E4Q       0.095000
     50 H9          -1.5950    16.6780     7.4140 ha         1 E4Q       0.093000
     51 H10          0.8200    16.1730     7.3490 ha         1 E4Q       0.108000
     52 H11          4.1580    15.7150     5.3030 hc         1 E4Q       0.040700
     53 H12          3.0650    15.8150     6.6730 hc         1 E4Q       0.040700
     54 H13          4.1270    13.3010     5.3210 hc         1 E4Q       0.060200
     55 H14          4.5600    13.8960     6.9210 hc         1 E4Q       0.060200
     56 H15          1.8270    12.8220     6.0670 h1         1 E4Q       0.038200
     57 H16          3.0390    11.9740     7.0460 h1         1 E4Q       0.038200
     58 H17          1.0770    11.1410     7.5430 ha         1 E4Q       0.123000
     59 H18          0.7310    16.7650    11.2560 ha         1 E4Q       0.107000
     60 H19         -1.1030    15.7530    12.5930 ha         1 E4Q       0.100000
     61 H20         -1.8720    13.4620    12.1010 ha         1 E4Q       0.099000
     62 H22          1.7790    15.4910     9.4320 ha         1 E4Q       0.132000
     63 H23         -1.7270    11.4010    10.7680 ha         1 E4Q       0.098000
     64 H24         -0.7110    10.1510     8.8980 ha         1 E4Q       0.109000
     65 H25          0.4700    14.8380     2.1460 hn         1 E4Q       0.373000
     66 H26         -3.7680    13.8450     4.7320 h1         1 E4Q       0.076200
     67 H27         -4.6500    13.0840     3.4080 h1         1 E4Q       0.076200
     68 H28         -0.8610    11.5140     5.3170 h1         1 E4Q       0.093700
     69 H29         -1.0950    13.2610     5.2820 h1         1 E4Q       0.093700
     70 H30         -4.4360     9.4500     8.2350 h1         1 E4Q       0.047700
     71 H31         -3.5550     9.9810     9.6850 h1         1 E4Q       0.047700
     72 H32         -5.1650    10.6410     9.3300 h1         1 E4Q       0.047700
     73 H33         -5.3780    13.1120     9.5370 hc         1 E4Q       0.044033
     74 H34         -3.9290    12.8200    10.5000 hc         1 E4Q       0.044033
     75 H35         -4.1040    14.3360     9.6120 hc         1 E4Q       0.044033
     76 C10         -3.4750    16.0150    -0.4240 c3         1 E4Q       0.078900
     77 C33          3.0910    14.4590     2.5380 c          1 E4Q       0.716200
@<TRIPOS>BOND
     1     1     2 2   
     2     1    39 1   
     3     1    41 1   
     4     2     3 1   
     5     2    42 1   
     6     3    37 1   
     7     3    38 2   
     8     4     5 1   
     9     4    34 2   
    10     4    35 1   
    11     5     6 2   
    12     5     8 1   
    13     6     7 1   
    14     6    33 1   
    15     7    46 1   
    16     7    47 1   
    17     7    48 1   
    18     8     9 ar  
    19     8    32 ar  
    20     9    10 ar  
    21     9    49 1   
    22    10    11 ar  
    23    10    50 1   
    24    11    12 ar  
    25    11    51 1   
    26    12    13 1   
    27    12    32 ar  
    28    13    14 1   
    29    13    24 2   
    30    14    15 1   
    31    14    52 1   
    32    14    53 1   
    33    15    16 1   
    34    15    54 1   
    35    15    55 1   
    36    16    25 1   
    37    16    56 1   
    38    16    57 1   
    39    17    26 ar  
    40    17    30 ar  
    41    17    58 1   
    42    18    21 ar  
    43    18    27 ar  
    44    18    29 ar  
    45    19    20 ar  
    46    19    28 ar  
    47    19    59 1   
    48    20    21 ar  
    49    20    60 1   
    50    21    61 1   
    51    22    77 1   
    52    23    77 1   
    53    24    31 1   
    54    24    77 1   
    55    25    26 1   
    56    26    27 ar  
    57    27    28 ar  
    58    28    62 1   
    59    29    30 ar  
    60    29    63 1   
    61    30    64 1   
    62    31    32 1   
    63    31    65 1   
    64    33    34 1   
    65    33    76 1   
    66    35    36 1   
    67    35    66 1   
    68    35    67 1   
    69    36    37 1   
    70    37    68 1   
    71    37    69 1   
    72    38    39 1   
    73    39    40 1   
    74    40    70 1   
    75    40    71 1   
    76    40    72 1   
    77    41    73 1   
    78    41    74 1   
    79    41    75 1   
    80    43    76 1   
    81    44    76 1   
    82    45    76 1   
@<TRIPOS>SUBSTRUCTURE
     1 E4Q         1 TEMP              0 ****  ****    0 ROOT
