@<TRIPOS>MOLECULE
E4Q
   77    82     1     0     0
SMALL
No Charge or Current Charge


@<TRIPOS>ATOM
      1 C1          -3.9160    12.6320     8.6150 cc         1 E4Q      -0.142300
      2 C2          -3.1230    13.1240     7.6230 cd         1 E4Q      -0.207000
      3 C3          -2.8110    12.0600     6.7550 cd         1 E4Q       0.262300
      4 C7          -3.3430    14.4900     2.8200 cc         1 E4Q       0.274300
      5 C8          -2.1490    15.2350     2.9330 cc         1 E4Q      -0.128000
      6 C9          -2.0410    15.9690     1.7820 cd         1 E4Q      -0.119300
      7 C11         -1.0920    17.0800     1.3880 c3         1 E4Q      -0.034800
      8 C12         -1.2960    15.4920     4.0980 ca         1 E4Q      -0.032000
      9 C13         -1.8640    15.7900     5.3590 ca         1 E4Q      -0.113000
     10 C14         -1.0430    16.0260     6.4840 ca         1 E4Q      -0.173000
     11 C15          0.3570    15.9420     6.3710 ca         1 E4Q      -0.062000
     12 C16          0.9020    15.6340     5.1170 ca         1 E4Q      -0.100800
     13 C19          2.2760    15.4490     4.7260 cc         1 E4Q      -0.169400
     14 C20          3.4570    15.5140     5.6710 c3         1 E4Q       0.028800
     15 C21          3.9730    14.1240     6.1220 c3         1 E4Q      -0.076400
     16 C22          2.8900    13.1550     6.6460 c3         1 E4Q       0.164600
     17 C24          0.8050    11.8040     8.1210 ca         1 E4Q      -0.219000
     18 C27         -0.4480    13.1430    10.2540 ca         1 E4Q       0.000000
     19 C30          0.3900    15.7140    11.0280 ca         1 E4Q      -0.144000
     20 C31         -0.6740    15.0930    11.7000 ca         1 E4Q      -0.101000
     21 C32         -1.0900    13.8080    11.3150 ca         1 E4Q      -0.125000
     22 O1           3.1750    14.5890     1.2850 o          1 E4Q      -0.714500
     23 O2           4.5590    14.9240     2.8840 o          1 E4Q      -0.714500
     24 C18          2.2420    15.1410     3.3540 cd         1 E4Q      -0.077300
     25 O            2.2960    13.7150     7.8290 os         1 E4Q      -0.352100
     26 C23          1.2520    13.0930     8.4920 ca         1 E4Q       0.182100
     27 C28          0.6210    13.7660     9.5670 ca         1 E4Q      -0.062000
     28 C29          1.0380    15.0550     9.9680 ca         1 E4Q      -0.057000
     29 C26         -0.8700    11.8560     9.8810 ca         1 E4Q      -0.165000
     30 C25         -0.2480    11.1890     8.8170 ca         1 E4Q      -0.046000
     31 N4           0.8900    15.1090     2.9280 na         1 E4Q      -0.197700
     32 C17          0.1110    15.4350     4.0210 ca         1 E4Q      -0.055200
     33 N2          -3.1310    15.5550     1.0030 na         1 E4Q       0.113800
     34 N3          -3.9440    14.6390     1.6540 nd         1 E4Q      -0.533800
     35 C6          -3.8420    13.5240     3.8750 c3         1 E4Q       0.054300
     36 S           -2.8520    11.9460     3.9070 ss         1 E4Q      -0.451000
     37 C5          -1.9390    12.1290     5.5220 c3         1 E4Q       0.049300
     38 N           -3.3640    10.9240     7.1400 nc         1 E4Q      -0.519800
     39 N1          -4.0440    11.2820     8.2880 na         1 E4Q       0.111800
     40 C4          -4.7970    10.2700     9.0450 c3         1 E4Q       0.077900
     41 C           -4.5160    13.3200     9.8110 c3         1 E4Q      -0.022800
     42 H1          -2.7800    14.1470     7.5300 ha         1 E4Q       0.159000
     43 H2          -4.2270    15.3680    -0.7980 h1         1 E4Q       0.050033
     44 H3          -3.8610    17.0460    -0.2960 h1         1 E4Q       0.050033
     45 H4          -2.5700    16.0120    -0.9780 h1         1 E4Q       0.050033
     46 H5          -1.6180    17.8850     0.8620 hc         1 E4Q       0.054367
     47 H6          -0.6120    17.5330     2.2640 hc         1 E4Q       0.054367
     48 H7          -0.3030    16.7090     0.7230 hc         1 E4Q       0.054367
     49 H8          -2.9410    15.8800     5.4650 ha         1 E4Q       0.095000
     50 H9          -1.4920    16.2710     7.4440 ha         1 E4Q       0.093000
     51 H10          0.9900    16.1110     7.2370 ha         1 E4Q       0.108000
     52 H11          4.2800    16.0730     5.2130 hc         1 E4Q       0.040700
     53 H12          3.1860    16.0890     6.5640 hc         1 E4Q       0.040700
     54 H13          4.4720    13.6410     5.2750 hc         1 E4Q       0.060200
     55 H14          4.7390    14.2580     6.8950 hc         1 E4Q       0.060200
     56 H15          2.1320    12.9950     5.8680 h1         1 E4Q       0.038200
     57 H16          3.3590    12.1890     6.8730 h1         1 E4Q       0.038200
     58 H17          1.2660    11.2590     7.3030 ha         1 E4Q       0.123000
     59 H18          0.7160    16.7070    11.3280 ha         1 E4Q       0.107000
     60 H19         -1.1740    15.6040    12.5200 ha         1 E4Q       0.100000
     61 H20         -1.9120    13.3300    11.8420 ha         1 E4Q       0.099000
     62 H22          1.8630    15.5530     9.4640 ha         1 E4Q       0.132000
     63 H23         -1.6890    11.3740    10.4080 ha         1 E4Q       0.098000
     64 H24         -0.5860    10.1960     8.5280 ha         1 E4Q       0.109000
     65 H25          0.5640    14.8860     1.9940 hn         1 E4Q       0.373000
     66 H26         -3.8290    13.9930     4.8640 h1         1 E4Q       0.076200
     67 H27         -4.8850    13.2700     3.6510 h1         1 E4Q       0.076200
     68 H28         -1.1920    11.3290     5.5900 h1         1 E4Q       0.093700
     69 H29         -1.3920    13.0790     5.5240 h1         1 E4Q       0.093700
     70 H30         -4.8320     9.3270     8.4850 h1         1 E4Q       0.047700
     71 H31         -4.3070    10.0990    10.0110 h1         1 E4Q       0.047700
     72 H32         -5.8200    10.6270     9.2140 h1         1 E4Q       0.047700
     73 H33         -5.6060    13.3880     9.7170 hc         1 E4Q       0.044033
     74 H34         -4.2870    12.7740    10.7340 hc         1 E4Q       0.044033
     75 H35         -4.1210    14.3380     9.9170 hc         1 E4Q       0.044033
     76 C10         -3.4690    16.0230    -0.3510 c3         1 E4Q       0.078900
     77 C33          3.4160    14.8620     2.4540 c          1 E4Q       0.716200
@<TRIPOS>BOND
     1     1     2 2   
     2     1    39 1   
     3     1    41 1   
     4     2     3 1   
     5     2    42 1   
     6     3    37 1   
     7     3    38 2   
     8     4     5 1   
     9     4    34 2   
    10     4    35 1   
    11     5     6 2   
    12     5     8 1   
    13     6     7 1   
    14     6    33 1   
    15     7    46 1   
    16     7    47 1   
    17     7    48 1   
    18     8     9 ar  
    19     8    32 ar  
    20     9    10 ar  
    21     9    49 1   
    22    10    11 ar  
    23    10    50 1   
    24    11    12 ar  
    25    11    51 1   
    26    12    13 1   
    27    12    32 ar  
    28    13    14 1   
    29    13    24 2   
    30    14    15 1   
    31    14    52 1   
    32    14    53 1   
    33    15    16 1   
    34    15    54 1   
    35    15    55 1   
    36    16    25 1   
    37    16    56 1   
    38    16    57 1   
    39    17    26 ar  
    40    17    30 ar  
    41    17    58 1   
    42    18    21 ar  
    43    18    27 ar  
    44    18    29 ar  
    45    19    20 ar  
    46    19    28 ar  
    47    19    59 1   
    48    20    21 ar  
    49    20    60 1   
    50    21    61 1   
    51    22    77 1   
    52    23    77 1   
    53    24    31 1   
    54    24    77 1   
    55    25    26 1   
    56    26    27 ar  
    57    27    28 ar  
    58    28    62 1   
    59    29    30 ar  
    60    29    63 1   
    61    30    64 1   
    62    31    32 1   
    63    31    65 1   
    64    33    34 1   
    65    33    76 1   
    66    35    36 1   
    67    35    66 1   
    68    35    67 1   
    69    36    37 1   
    70    37    68 1   
    71    37    69 1   
    72    38    39 1   
    73    39    40 1   
    74    40    70 1   
    75    40    71 1   
    76    40    72 1   
    77    41    73 1   
    78    41    74 1   
    79    41    75 1   
    80    43    76 1   
    81    44    76 1   
    82    45    76 1   
@<TRIPOS>SUBSTRUCTURE
     1 E4Q         1 TEMP              0 ****  ****    0 ROOT
