@<TRIPOS>MOLECULE
E4R
   61    65     1     0     0
SMALL
No Charge or Current Charge


@<TRIPOS>ATOM
      1 C1          -1.0400   -22.3420    48.9480 c6         1 E4R      -0.065400
      2 C2          -2.0130   -21.1590    48.7040 c6         1 E4R      -0.109400
      3 C3          -1.3950   -20.0920    47.7690 c6         1 E4R       0.172300
      4 O2          -0.4340   -20.6280    56.1530 oh         1 E4R      -0.647000
      5 C4          -0.0160   -19.6330    48.3050 c6         1 E4R      -0.064400
      6 C5           0.9640   -20.8250    48.5780 c6         1 E4R      -0.048700
      7 C6           2.3320   -20.3040    49.1040 c6         1 E4R      -0.072400
      8 C7           2.2350   -19.7370    50.5400 c6         1 E4R      -0.068400
      9 C8           1.6130   -20.7580    51.5480 c6         1 E4R      -0.036700
     10 C9           0.2350   -21.3130    51.0130 c6         1 E4R      -0.047700
     11 C10          0.3510   -21.9130    49.5410 c6         1 E4R      -0.026000
     12 C11         -0.3800   -22.3100    52.0440 c6         1 E4R      -0.076400
     13 C12         -0.5430   -21.6650    53.4400 c6         1 E4R      -0.061400
     14 C13          0.8050   -21.1100    54.0400 c5         1 E4R      -0.047000
     15 C14          1.5200   -20.1520    53.0060 c5         1 E4R       0.196000
     16 C15          0.6690   -18.8350    53.1230 c5         1 E4R      -0.107400
     17 C16         -0.0030   -18.8510    54.5370 c5         1 E4R      -0.114400
     18 C17          0.5530   -20.1190    55.2650 c5         1 E4R       0.256300
     19 C18          1.6710   -22.3590    54.4270 c3         1 E4R      -0.072100
     20 C19          1.2490   -23.2030    49.5180 c3         1 E4R      -0.085100
     21 C20          1.8010   -19.7630    56.0770 cc         1 E4R      -0.200300
     22 C21          2.3160   -20.6340    57.0610 cc         1 E4R      -0.168000
     23 C22          2.5580   -18.6200    56.1320 cd         1 E4R       0.119900
     24 C24          3.3770   -19.9830    57.6260 cd         1 E4R       0.115900
     25 O14          2.8650   -19.8800    53.4100 oh         1 E4R      -0.665000
     26 O23          3.5640   -18.7370    57.0650 os         1 E4R      -0.234000
     27 O3          -1.2730   -20.6010    46.4360 oh         1 E4R      -0.662000
     28 H1          -1.5270   -23.0940    49.5800 hc         1 E4R       0.043200
     29 H2          -0.8780   -22.8540    47.9880 hc         1 E4R       0.043200
     30 H3          -2.2920   -20.6970    49.6600 hc         1 E4R       0.040700
     31 H4          -2.9510   -21.5350    48.2720 hc         1 E4R       0.040700
     32 H5          -2.0640   -19.2190    47.7570 h1         1 E4R       0.026700
     33 H6          -0.3550   -20.0930    56.9700 ho         1 E4R       0.446000
     34 H7           0.4370   -18.9390    47.5830 hc         1 E4R       0.046200
     35 H8          -0.1810   -19.0430    49.2140 hc         1 E4R       0.046200
     36 H9           1.1580   -21.3020    47.6070 hc         1 E4R       0.060700
     37 H10          3.0800   -21.1070    49.0770 hc         1 E4R       0.040200
     38 H11          2.7170   -19.5260    48.4310 hc         1 E4R       0.040200
     39 H12          3.2440   -19.4520    50.8660 hc         1 E4R       0.043700
     40 H13          1.6540   -18.8060    50.5300 hc         1 E4R       0.043700
     41 H14          2.3080   -21.6030    51.6160 hc         1 E4R       0.063700
     42 H15         -0.4560   -20.4650    50.9670 hc         1 E4R       0.042700
     43 H16         -1.3760   -22.6320    51.7150 hc         1 E4R       0.041700
     44 H17          0.2210   -23.2240    52.1170 hc         1 E4R       0.041700
     45 H18         -1.2980   -20.8740    53.3540 hc         1 E4R       0.047700
     46 H19         -0.9820   -22.4030    54.1260 hc         1 E4R       0.047700
     47 H20          1.2930   -17.9440    52.9900 hc         1 E4R       0.053200
     48 H21         -0.1030   -18.7670    52.3500 hc         1 E4R       0.053200
     49 H22          0.1820   -17.9260    55.0930 hc         1 E4R       0.050200
     50 H23         -1.0930   -18.9000    54.4310 hc         1 E4R       0.050200
     51 H24          1.1620   -22.9750    55.1780 hc         1 E4R       0.039700
     52 H25          1.8860   -23.0010    53.5670 hc         1 E4R       0.039700
     53 H26          2.6450   -22.0810    54.8420 hc         1 E4R       0.039700
     54 H27          0.7800   -24.0350    50.0560 hc         1 E4R       0.033700
     55 H28          1.4130   -23.5510    48.4910 hc         1 E4R       0.033700
     56 H29          2.2390   -23.0530    49.9590 hc         1 E4R       0.033700
     57 H30          1.9380   -21.6190    57.3200 ha         1 E4R       0.152000
     58 H31          2.4930   -17.6900    55.5820 h4         1 E4R       0.055100
     59 H32          4.0540   -20.2840    58.4160 h4         1 E4R       0.055100
     60 H33          2.8570   -19.9040    54.3900 ho         1 E4R       0.447000
     61 H34         -2.1720   -20.8810    46.1610 ho         1 E4R       0.437000
@<TRIPOS>BOND
     1     1     2 1   
     2     1    11 1   
     3     1    28 1   
     4     1    29 1   
     5     2     3 1   
     6     2    30 1   
     7     2    31 1   
     8     3     5 1   
     9     3    27 1   
    10     3    32 1   
    11     4    18 1   
    12     4    33 1   
    13     5     6 1   
    14     5    34 1   
    15     5    35 1   
    16     6     7 1   
    17     6    11 1   
    18     6    36 1   
    19     7     8 1   
    20     7    37 1   
    21     7    38 1   
    22     8     9 1   
    23     8    39 1   
    24     8    40 1   
    25     9    10 1   
    26     9    15 1   
    27     9    41 1   
    28    10    11 1   
    29    10    12 1   
    30    10    42 1   
    31    11    20 1   
    32    12    13 1   
    33    12    43 1   
    34    12    44 1   
    35    13    14 1   
    36    13    45 1   
    37    13    46 1   
    38    14    15 1   
    39    14    18 1   
    40    14    19 1   
    41    15    16 1   
    42    15    25 1   
    43    16    17 1   
    44    16    47 1   
    45    16    48 1   
    46    17    18 1   
    47    17    49 1   
    48    17    50 1   
    49    18    21 1   
    50    19    51 1   
    51    19    52 1   
    52    19    53 1   
    53    20    54 1   
    54    20    55 1   
    55    20    56 1   
    56    21    22 1   
    57    21    23 2   
    58    22    24 2   
    59    22    57 1   
    60    23    26 1   
    61    23    58 1   
    62    24    26 1   
    63    24    59 1   
    64    25    60 1   
    65    27    61 1   
@<TRIPOS>SUBSTRUCTURE
     1 E4R         1 TEMP              0 ****  ****    0 ROOT
