@<TRIPOS>MOLECULE
E4R
   61    65     1     0     0
SMALL
abcg2


@<TRIPOS>ATOM
      1 C1          -1.0880   -22.2320    49.0600 c6         1 E4R      -0.065400
      2 C2          -1.9990   -21.0230    48.9060 c6         1 E4R      -0.109400
      3 C3          -1.3930   -19.9840    47.9690 c6         1 E4R       0.172300
      4 O2          -0.4800   -20.7420    55.9390 oh         1 E4R      -0.647000
      5 C4           0.0070   -19.6170    48.4320 c6         1 E4R      -0.064400
      6 C5           0.9300   -20.8270    48.6270 c6         1 E4R      -0.048700
      7 C6           2.3090   -20.3800    49.1100 c6         1 E4R      -0.072400
      8 C7           2.2750   -19.8460    50.5360 c6         1 E4R      -0.068400
      9 C8           1.6570   -20.8500    51.5150 c6         1 E4R      -0.036700
     10 C9           0.2960   -21.3670    51.0240 c6         1 E4R      -0.047700
     11 C10          0.3290   -21.8980    49.5660 c6         1 E4R      -0.026000
     12 C11         -0.2370   -22.3760    52.0340 c6         1 E4R      -0.076400
     13 C12         -0.4190   -21.7280    53.3960 c6         1 E4R      -0.061400
     14 C13          0.8880   -21.1630    53.9900 c5         1 E4R      -0.047000
     15 C14          1.5940   -20.2560    52.9380 c5         1 E4R       0.196000
     16 C15          0.7990   -18.9250    53.0160 c5         1 E4R      -0.107400
     17 C16          0.0160   -18.9330    54.3370 c5         1 E4R      -0.114400
     18 C17          0.5160   -20.1560    55.1280 c5         1 E4R       0.256300
     19 C18          1.7530   -22.3290    54.4570 c3         1 E4R      -0.072100
     20 C19          1.1520   -23.1880    49.4630 c3         1 E4R      -0.085100
     21 C20          1.6700   -19.7830    56.0280 cc         1 E4R      -0.200300
     22 C21          2.2470   -20.6030    57.0570 cc         1 E4R      -0.168000
     23 C22          2.3130   -18.5890    56.1280 cd         1 E4R       0.119900
     24 C24          3.1860   -19.8480    57.6670 cd         1 E4R       0.115900
     25 O14          2.9580   -20.0490    53.2760 oh         1 E4R      -0.665000
     26 O23          3.2380   -18.6220    57.1090 os         1 E4R      -0.234000
     27 O3          -1.2970   -20.4700    46.6400 oh         1 E4R      -0.662000
     28 H1          -1.5610   -22.9720    49.7100 hc         1 E4R       0.043200
     29 H2          -0.9880   -22.7200    48.0850 hc         1 E4R       0.043200
     30 H3          -2.1950   -20.5570    49.8750 hc         1 E4R       0.040700
     31 H4          -2.9780   -21.3370    48.5280 hc         1 E4R       0.040700
     32 H5          -2.0180   -19.0790    47.9910 h1         1 E4R       0.026700
     33 H6          -0.6920   -20.1250    56.6480 ho         1 E4R       0.446000
     34 H7           0.4640   -18.9320    47.7100 hc         1 E4R       0.046200
     35 H8          -0.0910   -19.0450    49.3580 hc         1 E4R       0.046200
     36 H9           1.0550   -21.2970    47.6450 hc         1 E4R       0.060700
     37 H10          3.0120   -21.2150    49.0490 hc         1 E4R       0.040200
     38 H11          2.7000   -19.6090    48.4390 hc         1 E4R       0.040200
     39 H12          3.2840   -19.5840    50.8540 hc         1 E4R       0.043700
     40 H13          1.7010   -18.9140    50.5540 hc         1 E4R       0.043700
     41 H14          2.3370   -21.7110    51.5770 hc         1 E4R       0.063700
     42 H15         -0.3940   -20.5130    51.0420 hc         1 E4R       0.042700
     43 H16         -1.2040   -22.7740    51.7170 hc         1 E4R       0.041700
     44 H17          0.4330   -23.2380    52.0970 hc         1 E4R       0.041700
     45 H18         -1.1720   -20.9430    53.2800 hc         1 E4R       0.047700
     46 H19         -0.8470   -22.4510    54.0940 hc         1 E4R       0.047700
     47 H20          1.4850   -18.0790    52.9430 hc         1 E4R       0.053200
     48 H21          0.1080   -18.8270    52.1770 hc         1 E4R       0.053200
     49 H22          0.1120   -18.0020    54.8970 hc         1 E4R       0.050200
     50 H23         -1.0510   -19.0560    54.1500 hc         1 E4R       0.050200
     51 H24          1.2410   -22.8920    55.2410 hc         1 E4R       0.039700
     52 H25          1.9480   -23.0290    53.6430 hc         1 E4R       0.039700
     53 H26          2.7180   -22.0170    54.8490 hc         1 E4R       0.039700
     54 H27          0.6750   -24.0090    50.0010 hc         1 E4R       0.033700
     55 H28          1.2360   -23.4950    48.4180 hc         1 E4R       0.033700
     56 H29          2.1640   -23.0890    49.8530 hc         1 E4R       0.033700
     57 H30          1.9900   -21.6200    57.3030 ha         1 E4R       0.152000
     58 H31          2.2180   -17.6530    55.5980 h4         1 E4R       0.055100
     59 H32          3.8640   -20.0390    58.4830 h4         1 E4R       0.055100
     60 H33          3.0120   -19.6240    54.1380 ho         1 E4R       0.447000
     61 H34         -2.1690   -20.7720    46.3670 ho         1 E4R       0.437000
@<TRIPOS>BOND
     1     1     2 1   
     2     1    11 1   
     3     1    28 1   
     4     1    29 1   
     5     2     3 1   
     6     2    30 1   
     7     2    31 1   
     8     3     5 1   
     9     3    27 1   
    10     3    32 1   
    11     4    18 1   
    12     4    33 1   
    13     5     6 1   
    14     5    34 1   
    15     5    35 1   
    16     6     7 1   
    17     6    11 1   
    18     6    36 1   
    19     7     8 1   
    20     7    37 1   
    21     7    38 1   
    22     8     9 1   
    23     8    39 1   
    24     8    40 1   
    25     9    10 1   
    26     9    15 1   
    27     9    41 1   
    28    10    11 1   
    29    10    12 1   
    30    10    42 1   
    31    11    20 1   
    32    12    13 1   
    33    12    43 1   
    34    12    44 1   
    35    13    14 1   
    36    13    45 1   
    37    13    46 1   
    38    14    15 1   
    39    14    18 1   
    40    14    19 1   
    41    15    16 1   
    42    15    25 1   
    43    16    17 1   
    44    16    47 1   
    45    16    48 1   
    46    17    18 1   
    47    17    49 1   
    48    17    50 1   
    49    18    21 1   
    50    19    51 1   
    51    19    52 1   
    52    19    53 1   
    53    20    54 1   
    54    20    55 1   
    55    20    56 1   
    56    21    22 1   
    57    21    23 2   
    58    22    24 2   
    59    22    57 1   
    60    23    26 1   
    61    23    58 1   
    62    24    26 1   
    63    24    59 1   
    64    25    60 1   
    65    27    61 1   
@<TRIPOS>SUBSTRUCTURE
     1 E4R         1 TEMP              0 ****  ****    0 ROOT
