@<TRIPOS>MOLECULE
E4S
   68    73     1     0     0
SMALL
abcg2


@<TRIPOS>ATOM
      1 C01          3.0720     4.5690    -0.6280 c3         1 E4S       0.163900
      2 C02          2.7710     2.3260     0.0210 ca         1 E4S       0.675300
      3 C03          3.2320     1.1740     0.6830 ca         1 E4S      -0.360500
      4 C04          2.4490     0.0370     0.6580 ca         1 E4S       0.061000
      5 C05          1.2260     0.0420    -0.0250 cp         1 E4S      -0.139000
      6 C06          0.8790     1.2400    -0.6410 ca         1 E4S       0.437900
      7 C07          0.3700    -1.1510    -0.1180 cp         1 E4S      -0.036000
      8 C08         -1.0210    -1.0240    -0.0760 ca         1 E4S      -0.093000
      9 C09         -1.7650    -2.1780    -0.1960 ca         1 E4S      -0.077200
     10 C10         -1.1940    -3.4530    -0.3340 ca         1 E4S       0.113400
     11 C11          0.1850    -3.5700    -0.3620 ca         1 E4S      -0.070000
     12 C12          0.9520    -2.4190    -0.2600 ca         1 E4S      -0.114000
     13 C13         -3.2910    -3.7570    -0.3430 cc         1 E4S       0.652700
     14 C14         -4.1480    -1.4250    -0.1140 ca         1 E4S      -0.057200
     15 C15         -4.2860    -0.4820    -1.1270 ca         1 E4S      -0.069000
     16 C16         -5.2610     0.4930    -1.0540 ca         1 E4S      -0.169500
     17 C17         -6.1620     0.5540     0.0300 ca         1 E4S       0.321000
     18 C18         -6.0030    -0.4120     1.0390 ca         1 E4S      -0.169500
     19 C19         -5.0090    -1.3750     0.9690 ca         1 E4S      -0.069000
     20 C20         -6.9460     2.8520    -0.3840 c6         1 E4S       0.163300
     21 C21         -8.2520     3.5920    -0.5830 c6         1 E4S       0.145600
     22 C22         -9.3320     2.2640     0.9560 c6         1 E4S       0.145600
     23 C23         -8.0790     1.4540     1.2270 c6         1 E4S       0.163300
     24 C24          6.1280     0.1900    -0.5150 ca         1 E4S       0.201000
     25 C25          5.3680    -0.0950    -1.6430 ca         1 E4S      -0.069000
     26 C26          5.6230    -1.2290    -2.4010 ca         1 E4S      -0.123000
     27 C27          6.6590    -2.0800    -2.0420 ca         1 E4S      -0.078000
     28 C28          7.4370    -1.8080    -0.9260 ca         1 E4S      -0.142000
     29 C29          7.1520    -0.6870    -0.1730 ca         1 E4S       0.170000
     30 F01          7.8920    -0.4140     0.9070 f          1 E4S      -0.171000
     31 N01          1.6190     2.3420    -0.6170 nb         1 E4S      -0.779000
     32 N02         -2.1630    -4.4150    -0.4280 nd         1 E4S      -0.642100
     33 N03         -4.5230    -4.3150    -0.3440 nv         1 E4S      -1.014200
     34 N04         -3.1290    -2.4040    -0.1890 na         1 E4S      -0.117400
     35 N05         -7.1870     1.4870     0.0800 nh         1 E4S      -0.790400
     36 N06          5.8460     1.3340     0.2690 nu         1 E4S      -0.896100
     37 O01          3.5370     3.3980     0.0350 os         1 E4S      -0.442300
     38 O02         -9.0400     3.5870     0.5820 os         1 E4S      -0.439000
     39 O03          4.9270     2.3270     2.3660 o          1 E4S      -0.535500
     40 O04          4.9100    -0.1690     2.1310 o          1 E4S      -0.535500
     41 S01          4.7790     1.1500     1.5370 sy         1 E4S       1.178600
     42 H03          2.1410     4.9300    -0.1930 h1         1 E4S       0.052700
     43 H02          3.8510     5.3130    -0.4860 h1         1 E4S       0.052700
     44 H01          2.9240     4.3940    -1.6930 h1         1 E4S       0.052700
     45 H04          2.7850    -0.8550     1.1720 ha         1 E4S       0.154000
     46 H05         -0.0410     1.3090    -1.2100 h4         1 E4S       0.022100
     47 H06         -1.4920    -0.0590     0.0630 ha         1 E4S       0.121000
     48 H08          0.6580    -4.5370    -0.4810 ha         1 E4S       0.130000
     49 H07          2.0290    -2.5060    -0.3180 ha         1 E4S       0.115000
     50 H11         -3.6280    -0.5120    -1.9870 ha         1 E4S       0.129500
     51 H13         -5.3380     1.1840    -1.8790 ha         1 E4S       0.120000
     52 H14         -6.6410    -0.4190     1.9090 ha         1 E4S       0.120000
     53 H12         -4.9060    -2.0880     1.7780 ha         1 E4S       0.129500
     54 H15         -6.4290     2.8590    -1.3380 h1         1 E4S       0.050450
     55 H16         -6.3170     3.3960     0.3350 h1         1 E4S       0.050450
     56 H20         -8.0420     4.6310    -0.8370 h1         1 E4S       0.055450
     57 H19         -8.8000     3.1440    -1.4240 h1         1 E4S       0.055450
     58 H22         -9.9190     1.7640     0.1730 h1         1 E4S       0.055450
     59 H21         -9.9390     2.3000     1.8600 h1         1 E4S       0.055450
     60 H17         -7.5820     1.8220     2.1360 h1         1 E4S       0.050450
     61 H18         -8.3990     0.4300     1.4190 h1         1 E4S       0.050450
     62 H24          4.5760     0.5870    -1.9250 ha         1 E4S       0.130000
     63 H25          5.0220    -1.4410    -3.2730 ha         1 E4S       0.123000
     64 H26          6.8700    -2.9590    -2.6350 ha         1 E4S       0.121000
     65 H27          8.2490    -2.4630    -0.6390 ha         1 E4S       0.136000
     66 H09         -5.3030    -3.7370    -0.6070 hn         1 E4S       0.482500
     67 H10         -4.5690    -5.2590    -0.6880 hn         1 E4S       0.482500
     68 H23          6.6270     1.9300     0.5190 hn         1 E4S       0.505000
@<TRIPOS>BOND
     1     1    37 1   
     2     1    42 1   
     3     1    43 1   
     4     1    44 1   
     5     2     3 ar  
     6     2    31 ar  
     7     2    37 1   
     8     3     4 ar  
     9     3    41 1   
    10     4     5 ar  
    11     4    45 1   
    12     5     6 ar  
    13     5     7 1   
    14     6    31 ar  
    15     6    46 1   
    16     7     8 ar  
    17     7    12 ar  
    18     8     9 ar  
    19     8    47 1   
    20     9    10 ar  
    21     9    34 1   
    22    10    11 ar  
    23    10    32 1   
    24    11    12 ar  
    25    11    48 1   
    26    12    49 1   
    27    13    32 2   
    28    13    33 1   
    29    13    34 1   
    30    14    15 ar  
    31    14    19 ar  
    32    14    34 1   
    33    15    16 ar  
    34    15    50 1   
    35    16    17 ar  
    36    16    51 1   
    37    17    18 ar  
    38    17    35 1   
    39    18    19 ar  
    40    18    52 1   
    41    19    53 1   
    42    20    21 1   
    43    20    35 1   
    44    20    54 1   
    45    20    55 1   
    46    21    38 1   
    47    21    56 1   
    48    21    57 1   
    49    22    23 1   
    50    22    38 1   
    51    22    58 1   
    52    22    59 1   
    53    23    35 1   
    54    23    60 1   
    55    23    61 1   
    56    24    25 ar  
    57    24    29 ar  
    58    24    36 1   
    59    25    26 ar  
    60    25    62 1   
    61    26    27 ar  
    62    26    63 1   
    63    27    28 ar  
    64    27    64 1   
    65    28    29 ar  
    66    28    65 1   
    67    29    30 1   
    68    33    66 1   
    69    33    67 1   
    70    36    41 1   
    71    36    68 1   
    72    39    41 2   
    73    40    41 2   
@<TRIPOS>SUBSTRUCTURE
     1 E4S         1 TEMP              0 ****  ****    0 ROOT
