@<TRIPOS>MOLECULE
E4S
   68    73     1     0     0
SMALL
No Charge or Current Charge


@<TRIPOS>ATOM
      1 C01          3.4990     4.1060    -0.4680 c3         1 E4S       0.163900
      2 C02          2.9210     1.8470     0.3130 ca         1 E4S       0.675300
      3 C03          3.2490     0.7080     1.0440 ca         1 E4S      -0.360500
      4 C04          2.4060    -0.4150     1.0120 ca         1 E4S       0.061000
      5 C05          1.2250    -0.3640     0.2410 cp         1 E4S      -0.139000
      6 C06          0.9770     0.8430    -0.4540 ca         1 E4S       0.437900
      7 C07          0.2840    -1.5250     0.1600 cp         1 E4S      -0.036000
      8 C08         -1.1160    -1.3190     0.0210 ca         1 E4S      -0.093000
      9 C09         -1.9500    -2.4420    -0.0530 ca         1 E4S      -0.077200
     10 C10         -1.4860    -3.7310     0.0080 ca         1 E4S       0.113400
     11 C11         -0.1140    -3.9750     0.1420 ca         1 E4S      -0.070000
     12 C12          0.7640    -2.8700     0.2160 ca         1 E4S      -0.114000
     13 C13         -3.6060    -3.9080    -0.1700 cc         1 E4S       0.652700
     14 C14         -4.2270    -1.5080    -0.1330 ca         1 E4S      -0.057200
     15 C15         -4.2510    -0.5390    -1.1520 ca         1 E4S      -0.069000
     16 C16         -5.1760     0.5180    -1.0990 ca         1 E4S      -0.169500
     17 C17         -6.0870     0.6260    -0.0320 ca         1 E4S       0.321000
     18 C18         -6.0570    -0.3490     0.9860 ca         1 E4S      -0.169500
     19 C19         -5.1320    -1.4070     0.9390 ca         1 E4S      -0.069000
     20 C20         -6.5320     3.1150    -0.1170 c6         1 E4S       0.163300
     21 C21         -7.6590     4.0830    -0.5870 c6         1 E4S       0.145600
     22 C22         -9.3790     2.5970     0.2020 c6         1 E4S       0.145600
     23 C23         -8.3290     1.5630     0.7080 c6         1 E4S       0.163300
     24 C24          6.1540     0.2540    -0.3720 ca         1 E4S       0.201000
     25 C25          5.7690    -1.0880    -0.5840 ca         1 E4S      -0.069000
     26 C26          5.9450    -1.6940    -1.8410 ca         1 E4S      -0.123000
     27 C27          6.5100    -0.9700    -2.9040 ca         1 E4S      -0.078000
     28 C28          6.9030     0.3640    -2.7080 ca         1 E4S      -0.142000
     29 C29          6.7270     0.9700    -1.4530 ca         1 E4S       0.170000
     30 F01          7.1040     2.2620    -1.2900 f          1 E4S      -0.171000
     31 N01          1.7960     1.9160    -0.4270 nb         1 E4S      -0.779000
     32 N02         -2.5210    -4.6740    -0.0740 nd         1 E4S      -0.642100
     33 N03         -4.8420    -4.4180    -0.2860 nv         1 E4S      -1.014200
     34 N04         -3.2980    -2.5490    -0.1840 na         1 E4S      -0.117400
     35 N05         -7.0120     1.6970     0.0010 nh         1 E4S      -0.790400
     36 N06          5.9750     0.8850     0.8710 nu         1 E4S      -0.896100
     37 O01          3.7720     2.9290     0.3160 os         1 E4S      -0.442300
     38 O02         -8.8390     3.9390     0.2380 os         1 E4S      -0.439000
     39 O03          4.8480     1.8830     2.8050 o          1 E4S      -0.535500
     40 O04          4.9640    -0.6600     2.5460 o          1 E4S      -0.535500
     41 S01          4.7420     0.6750     1.9870 sy         1 E4S       1.178600
     42 H03          2.5490     4.5670    -0.1660 h1         1 E4S       0.052700
     43 H02          4.2940     4.8490    -0.3310 h1         1 E4S       0.052700
     44 H01          3.4440     3.8610    -1.5370 h1         1 E4S       0.052700
     45 H04          2.6470    -1.3100     1.5850 ha         1 E4S       0.154000
     46 H05          0.0900     0.9480    -1.0760 h4         1 E4S       0.022100
     47 H06         -1.5390    -0.3190    -0.0140 ha         1 E4S       0.121000
     48 H08          0.2650    -4.9930     0.1860 ha         1 E4S       0.130000
     49 H07          1.8300    -3.0620     0.3040 ha         1 E4S       0.115000
     50 H11         -3.5550    -0.6070    -1.9860 ha         1 E4S       0.129500
     51 H13         -5.1930     1.2490    -1.9010 ha         1 E4S       0.120000
     52 H14         -6.7400    -0.2850     1.8280 ha         1 E4S       0.120000
     53 H12         -5.1170    -2.1440     1.7400 ha         1 E4S       0.129500
     54 H15         -5.6970     3.1890    -0.8280 h1         1 E4S       0.050450
     55 H16         -6.1550     3.4600     0.8570 h1         1 E4S       0.050450
     56 H20         -7.3040     5.1220    -0.5320 h1         1 E4S       0.055450
     57 H19         -7.9210     3.8680    -1.6330 h1         1 E4S       0.055450
     58 H22         -9.6740     2.3540    -0.8290 h1         1 E4S       0.055450
     59 H21        -10.2790     2.5530     0.8310 h1         1 E4S       0.055450
     60 H17         -8.1900     1.7040     1.7910 h1         1 E4S       0.050450
     61 H18         -8.7400     0.5540     0.5590 h1         1 E4S       0.050450
     62 H24          5.3380    -1.6730     0.2220 ha         1 E4S       0.130000
     63 H25          5.6440    -2.7290    -1.9900 ha         1 E4S       0.123000
     64 H26          6.6450    -1.4420    -3.8750 ha         1 E4S       0.121000
     65 H27          7.3410     0.9310    -3.5250 ha         1 E4S       0.136000
     66 H09         -5.5490    -3.8010    -0.6680 hn         1 E4S       0.482500
     67 H10         -4.8960    -5.3930    -0.5540 hn         1 E4S       0.482500
     68 H23          6.1490     1.8830     0.8890 hn         1 E4S       0.505000
@<TRIPOS>BOND
     1     1    37 1   
     2     1    42 1   
     3     1    43 1   
     4     1    44 1   
     5     2     3 ar  
     6     2    31 ar  
     7     2    37 1   
     8     3     4 ar  
     9     3    41 1   
    10     4     5 ar  
    11     4    45 1   
    12     5     6 ar  
    13     5     7 1   
    14     6    31 ar  
    15     6    46 1   
    16     7     8 ar  
    17     7    12 ar  
    18     8     9 ar  
    19     8    47 1   
    20     9    10 ar  
    21     9    34 1   
    22    10    11 ar  
    23    10    32 1   
    24    11    12 ar  
    25    11    48 1   
    26    12    49 1   
    27    13    32 2   
    28    13    33 1   
    29    13    34 1   
    30    14    15 ar  
    31    14    19 ar  
    32    14    34 1   
    33    15    16 ar  
    34    15    50 1   
    35    16    17 ar  
    36    16    51 1   
    37    17    18 ar  
    38    17    35 1   
    39    18    19 ar  
    40    18    52 1   
    41    19    53 1   
    42    20    21 1   
    43    20    35 1   
    44    20    54 1   
    45    20    55 1   
    46    21    38 1   
    47    21    56 1   
    48    21    57 1   
    49    22    23 1   
    50    22    38 1   
    51    22    58 1   
    52    22    59 1   
    53    23    35 1   
    54    23    60 1   
    55    23    61 1   
    56    24    25 ar  
    57    24    29 ar  
    58    24    36 1   
    59    25    26 ar  
    60    25    62 1   
    61    26    27 ar  
    62    26    63 1   
    63    27    28 ar  
    64    27    64 1   
    65    28    29 ar  
    66    28    65 1   
    67    29    30 1   
    68    33    66 1   
    69    33    67 1   
    70    36    41 1   
    71    36    68 1   
    72    39    41 2   
    73    40    41 2   
@<TRIPOS>SUBSTRUCTURE
     1 E4S         1 TEMP              0 ****  ****    0 ROOT
