@<TRIPOS>MOLECULE
E4T
   25    25     1     0     0
SMALL
No Charge or Current Charge


@<TRIPOS>ATOM
      1 CAA         -0.0120     3.1800    -0.0040 c3         1 E4T      -0.086100
      2 CAG         -1.2760     0.9690    -0.3200 c6         1 E4T      -0.055400
      3 CAH          1.2660     0.9760    -0.3080 c6         1 E4T      -0.055400
      4 CAI         -0.0100     1.6510     0.2650 c6         1 E4T      -0.058700
      5 CAJ          0.0020    -1.2470    -0.5330 c6         1 E4T      -0.209400
      6 CAK         -1.3070    -0.5610    -0.0550 c6         1 E4T       0.405500
      7 CAL          1.3020    -0.5550    -0.0410 c6         1 E4T       0.405500
      8 OAC         -2.3950    -1.1170    -0.7570 oh         1 E4T      -0.660500
      9 OAD          2.4000    -1.1050    -0.7330 oh         1 E4T      -0.660500
     10 OAE         -1.5440    -0.8120     1.3130 oh         1 E4T      -0.660500
     11 OAF          1.5260    -0.8050     1.3290 oh         1 E4T      -0.660500
     12 H1          -0.9000     3.6570     0.4290 hc         1 E4T       0.035367
     13 H2           0.8690     3.6610     0.4380 hc         1 E4T       0.035367
     14 H3          -0.0070     3.3980    -1.0800 hc         1 E4T       0.035367
     15 H5          -1.3180     1.1500    -1.4030 hc         1 E4T       0.062700
     16 H6           1.3180     1.1560    -1.3900 hc         1 E4T       0.062700
     17 H7           2.1620     1.4440     0.1230 hc         1 E4T       0.062700
     18 H8          -0.0150     1.5320     1.3590 hc         1 E4T       0.076700
     19 H9           0.0030    -2.3090    -0.2510 hc         1 E4T       0.056700
     20 H10          0.0070    -1.2330    -1.6330 hc         1 E4T       0.056700
     21 H11         -2.1290    -2.0300    -0.9870 ho         1 E4T       0.436750
     22 H12          2.1410    -2.0200    -0.9660 ho         1 E4T       0.436750
     23 H13         -1.2820    -1.7410     1.4680 ho         1 E4T       0.436750
     24 H14          1.2680    -1.7340     1.4800 ho         1 E4T       0.436750
     25 H4          -2.1780     1.4330     0.1010 hc         1 E4T       0.062700
@<TRIPOS>BOND
     1     1     4 1   
     2     1    12 1   
     3     1    13 1   
     4     1    14 1   
     5     2     4 1   
     6     2     6 1   
     7     2    15 1   
     8     2    25 1   
     9     3     4 1   
    10     3     7 1   
    11     3    16 1   
    12     3    17 1   
    13     4    18 1   
    14     5     6 1   
    15     5     7 1   
    16     5    19 1   
    17     5    20 1   
    18     6     8 1   
    19     6    10 1   
    20     7     9 1   
    21     7    11 1   
    22     8    21 1   
    23     9    22 1   
    24    10    23 1   
    25    11    24 1   
@<TRIPOS>SUBSTRUCTURE
     1 E4T         1 TEMP              0 ****  ****    0 ROOT
