@<TRIPOS>MOLECULE
E4T
   25    25     1     0     0
SMALL
bcc


@<TRIPOS>ATOM
      1 CAA         -0.0120     3.1030    -0.0080 c3         1 E4T      -0.086100
      2 CAG         -1.2580     0.9480    -0.3090 c6         1 E4T      -0.055400
      3 CAH          1.2470     0.9540    -0.2930 c6         1 E4T      -0.055400
      4 CAI         -0.0110     1.6050     0.2750 c6         1 E4T      -0.058700
      5 CAJ          0.0020    -1.2010    -0.5950 c6         1 E4T      -0.209400
      6 CAK         -1.2940    -0.5590    -0.0860 c6         1 E4T       0.359100
      7 CAL          1.2880    -0.5530    -0.0700 c6         1 E4T       0.359100
      8 OAC         -2.3900    -1.0490    -0.8190 oh         1 E4T      -0.598300
      9 OAD          2.3960    -1.0380    -0.7880 oh         1 E4T      -0.598300
     10 OAE         -1.4860    -0.7660     1.2860 oh         1 E4T      -0.598300
     11 OAF          1.4640    -0.7600     1.3050 oh         1 E4T      -0.598300
     12 H1          -0.8970     3.5840     0.4110 hc         1 E4T       0.035367
     13 H2           0.8660     3.5880     0.4220 hc         1 E4T       0.035367
     14 H3          -0.0060     3.3000    -1.0830 hc         1 E4T       0.035367
     15 H5          -1.2940     1.1380    -1.3870 hc         1 E4T       0.062700
     16 H6           1.2950     1.1440    -1.3710 hc         1 E4T       0.062700
     17 H7           2.1400     1.4090     0.1470 hc         1 E4T       0.062700
     18 H8          -0.0170     1.4650     1.3590 hc         1 E4T       0.076700
     19 H9           0.0020    -2.2790    -0.3740 hc         1 E4T       0.056700
     20 H10          0.0080    -1.1140    -1.6850 hc         1 E4T       0.056700
     21 H11         -2.3620    -2.0130    -0.8300 ho         1 E4T       0.397750
     22 H12          2.3630    -2.0010    -0.8180 ho         1 E4T       0.397750
     23 H13         -1.2890    -1.6820     1.5100 ho         1 E4T       0.397750
     24 H14          1.2920    -1.6830     1.5210 ho         1 E4T       0.397750
     25 H4          -2.1580     1.3990     0.1210 hc         1 E4T       0.062700
@<TRIPOS>BOND
     1     1     4 1   
     2     1    12 1   
     3     1    13 1   
     4     1    14 1   
     5     2     4 1   
     6     2     6 1   
     7     2    15 1   
     8     2    25 1   
     9     3     4 1   
    10     3     7 1   
    11     3    16 1   
    12     3    17 1   
    13     4    18 1   
    14     5     6 1   
    15     5     7 1   
    16     5    19 1   
    17     5    20 1   
    18     6     8 1   
    19     6    10 1   
    20     7     9 1   
    21     7    11 1   
    22     8    21 1   
    23     9    22 1   
    24    10    23 1   
    25    11    24 1   
@<TRIPOS>SUBSTRUCTURE
     1 E4T         1 TEMP              0 ****  ****    0 ROOT
