@<TRIPOS>MOLECULE
E4V
   27    29     1     0     0
SMALL
bcc


@<TRIPOS>ATOM
      1 N12          3.1910     1.7640     0.0850 na         1 E4V      -0.281100
      2 C13          2.2570     2.7660     0.1870 cc         1 E4V      -0.136100
      3 C15          1.1690     0.8140     0.0130 ca         1 E4V      -0.220100
      4 C02         -3.8200    -0.0180     0.0730 ca         1 E4V       0.568900
      5 C03         -3.0000     1.0370    -0.3900 ca         1 E4V       0.225900
      6 C05         -1.1300    -0.2090    -0.0060 cp         1 E4V       0.279500
      7 C06          0.3340    -0.3180    -0.0540 cp         1 E4V      -0.000500
      8 C07          0.9540    -1.5510    -0.1670 ca         1 E4V      -0.330300
      9 C08          2.3640    -1.6570    -0.1960 ca         1 E4V       0.673200
     10 C11          2.5570     0.5680    -0.0180 ca         1 E4V       0.470800
     11 C14          1.0050     2.2290     0.1470 cd         1 E4V      -0.142200
     12 C16         -1.9430    -1.2320     0.4660 ca         1 E4V       0.361900
     13 N04         -1.6980     0.9320    -0.4210 nb         1 E4V      -0.590000
     14 N09          2.9470    -2.8850    -0.3680 nv         1 E4V      -0.937500
     15 N10          3.1680    -0.6070    -0.1160 nb         1 E4V      -0.761000
     16 N17         -3.2640    -1.1460     0.5060 nb         1 E4V      -0.728000
     17 H1           4.1890     1.8920     0.0890 hn         1 E4V       0.305700
     18 H2           2.5660     3.7950     0.2760 h4         1 E4V       0.162000
     19 H3          -3.4430     1.9660    -0.7350 h4         1 E4V       0.025100
     20 H4           0.3670    -2.4550    -0.2620 ha         1 E4V       0.134000
     21 H5           0.0820     2.7810     0.1990 ha         1 E4V       0.165000
     22 H6          -1.5140    -2.1540     0.8450 h4         1 E4V       0.027100
     23 H7          -5.7150    -0.7150     0.3000 hn         1 E4V       0.434300
     24 H8          -5.6130     0.8570    -0.3650 hn         1 E4V       0.434300
     25 H9           2.4130    -3.6870    -0.0770 hn         1 E4V       0.407800
     26 H10          3.9210    -2.9430    -0.1180 hn         1 E4V       0.407800
     27 N01         -5.1600     0.1060     0.1260 nv         1 E4V      -0.958500
@<TRIPOS>BOND
     1     1     2 1   
     2     1    10 1   
     3     1    17 1   
     4     2    11 2   
     5     2    18 1   
     6     3     7 ar  
     7     3    10 ar  
     8     3    11 1   
     9     4     5 ar  
    10     4    16 ar  
    11     4    27 1   
    12     5    13 ar  
    13     5    19 1   
    14     6     7 1   
    15     6    12 ar  
    16     6    13 ar  
    17     7     8 ar  
    18     8     9 ar  
    19     8    20 1   
    20     9    14 1   
    21     9    15 ar  
    22    10    15 ar  
    23    11    21 1   
    24    12    16 ar  
    25    12    22 1   
    26    14    25 1   
    27    14    26 1   
    28    23    27 1   
    29    24    27 1   
@<TRIPOS>SUBSTRUCTURE
     1 E4V         1 TEMP              0 ****  ****    0 ROOT
