@<TRIPOS>MOLECULE
E4V
   27    29     1     0     0
SMALL
No Charge or Current Charge


@<TRIPOS>ATOM
      1 N12          3.2550     1.7630     0.0770 na         1 E4V      -0.331400
      2 C13          2.3320     2.8200     0.2090 cc         1 E4V      -0.186100
      3 C15          1.2590     0.7540     0.0190 ca         1 E4V      -0.154800
      4 C02         -3.8810     0.0580     0.0820 ca         1 E4V       0.568900
      5 C03         -3.0620     1.1170    -0.4260 ca         1 E4V       0.225900
      6 C05         -1.1720    -0.1490    -0.0080 cp         1 E4V       0.279500
      7 C06          0.3270    -0.3150    -0.0560 cp         1 E4V      -0.000500
      8 C07          0.9370    -1.5920    -0.1800 ca         1 E4V      -0.247000
      9 C08          2.3340    -1.6930    -0.2260 ca         1 E4V       0.607900
     10 C11          2.6260     0.5380    -0.0310 ca         1 E4V       0.405500
     11 C14          1.1050     2.1860     0.1750 cd         1 E4V      -0.192200
     12 C16         -2.0290    -1.1920     0.4910 ca         1 E4V       0.361900
     13 N04         -1.7050     1.0180    -0.4740 nb         1 E4V      -0.590000
     14 N09          2.9810    -2.8540    -0.3410 nv         1 E4V      -1.047900
     15 N10          3.1830    -0.6780    -0.1520 nb         1 E4V      -0.761000
     16 N17         -3.3900    -1.0960     0.5410 nb         1 E4V      -0.728000
     17 H1           4.2630     1.8620     0.0620 hn         1 E4V       0.356000
     18 H2           2.6090     3.8670     0.3130 h4         1 E4V       0.212000
     19 H3          -3.5010     2.0430    -0.7950 h4         1 E4V       0.025100
     20 H4           0.3370    -2.4920    -0.2610 ha         1 E4V       0.116000
     21 H5           0.1550     2.7110     0.2610 ha         1 E4V       0.215000
     22 H6          -1.6070    -2.1210     0.8700 h4         1 E4V       0.027100
     23 H7          -5.6470    -0.8550     0.3340 hn         1 E4V       0.489500
     24 H8          -5.7510     0.6890    -0.4320 hn         1 E4V       0.489500
     25 H9           2.4840    -3.6950    -0.0700 hn         1 E4V       0.463000
     26 H10          3.9710    -2.8200    -0.1320 hn         1 E4V       0.463000
     27 N01         -5.2290     0.0550     0.1670 nv         1 E4V      -1.068900
@<TRIPOS>BOND
     1     1     2 1   
     2     1    10 1   
     3     1    17 1   
     4     2    11 2   
     5     2    18 1   
     6     3     7 ar  
     7     3    10 ar  
     8     3    11 1   
     9     4     5 ar  
    10     4    16 ar  
    11     4    27 1   
    12     5    13 ar  
    13     5    19 1   
    14     6     7 1   
    15     6    12 ar  
    16     6    13 ar  
    17     7     8 ar  
    18     8     9 ar  
    19     8    20 1   
    20     9    14 1   
    21     9    15 ar  
    22    10    15 ar  
    23    11    21 1   
    24    12    16 ar  
    25    12    22 1   
    26    14    25 1   
    27    14    26 1   
    28    23    27 1   
    29    24    27 1   
@<TRIPOS>SUBSTRUCTURE
     1 E4V         1 TEMP              0 ****  ****    0 ROOT
