@<TRIPOS>MOLECULE
E4W
   79    85     1     0     0
SMALL
No Charge or Current Charge


@<TRIPOS>ATOM
      1 C1          -4.9300     0.0070     1.1130 cc         1 E4W      -0.118300
      2 C2          -3.8980     0.4800     0.3460 cd         1 E4W      -0.133000
      3 C3          -3.7700     1.8620     0.6530 cd         1 E4W       0.284300
      4 C7          -0.6940     4.4420    -1.7630 cc         1 E4W       0.252300
      5 C8           0.0030     3.2350    -1.9190 cc         1 E4W      -0.204000
      6 C9           1.2990     3.4760    -1.5880 cd         1 E4W      -0.133300
      7 C11          2.4690     2.5250    -1.5510 c3         1 E4W       0.122900
      8 C12          4.1360     0.8690     0.0620 ca         1 E4W      -0.064000
      9 C13          5.5270     0.8040     0.2230 ca         1 E4W      -0.110000
     10 C14          6.1800    -0.4410     0.2320 ca         1 E4W      -0.017000
     11 C15          7.5790    -0.4960     0.3880 ca         1 E4W      -0.113000
     12 C16          8.2400    -1.7340     0.4060 ca         1 E4W      -0.105000
     13 C19          5.4340    -1.6350     0.0920 ca         1 E4W      -0.048000
     14 C20          4.0270    -1.5700    -0.0620 ca         1 E4W       0.185100
     15 C21          3.3880    -0.3100    -0.0830 ca         1 E4W      -0.198000
     16 C22          1.8850    -2.7710    -0.3710 c3         1 E4W       0.158600
     17 C24         -0.1000    -4.4260    -0.5090 c3         1 E4W       0.031800
     18 C27         -1.3110    -1.9650    -2.1210 ca         1 E4W      -0.069000
     19 C30         -2.9650    -0.3300    -0.4640 ca         1 E4W      -0.009000
     20 C31         -2.2510    -1.4420     0.0570 ca         1 E4W      -0.048200
     21 C32         -1.4380    -3.1730     1.3730 cc         1 E4W      -0.063300
     22 C33         -1.1820    -4.0950     2.5360 c          1 E4W       0.720200
     23 C29         -2.8010    -0.0480    -1.8480 ca         1 E4W       0.120000
     24 C28         -1.9700    -0.8480    -2.6600 ca         1 E4W      -0.158000
     25 C26         -1.4900    -2.2370    -0.7580 ca         1 E4W      -0.091800
     26 N4          -2.1340    -1.9370     1.3600 na         1 E4W      -0.055700
     27 O2          -0.5350    -5.1210     2.3810 o          1 E4W      -0.697500
     28 O1          -1.6610    -3.8060     3.6240 o          1 E4W      -0.697500
     29 C25         -0.9890    -3.3280     0.0510 cd         1 E4W      -0.186400
     30 C23          1.4010    -4.2240    -0.1930 c3         1 E4W      -0.076400
     31 O            3.3070    -2.7500    -0.1560 os         1 E4W      -0.351100
     32 C18          6.1090    -2.8770     0.1150 ca         1 E4W      -0.062000
     33 C17          7.5060    -2.9230     0.2700 ca         1 E4W      -0.133000
     34 S1           3.3040     2.4470     0.0960 ss         1 E4W      -0.215000
     35 N2           1.3260     4.8430    -1.2700 na         1 E4W       0.140800
     36 N3           0.0740     5.4410    -1.3770 nd         1 E4W      -0.518800
     37 C6          -2.1730     4.5680    -2.0410 c3         1 E4W       0.028300
     38 S           -3.2420     4.4260    -0.5220 ss         1 E4W      -0.397000
     39 C5          -2.6750     2.7950     0.1790 c3         1 E4W       0.034300
     40 N           -4.6780     2.2780     1.5180 nc         1 E4W      -0.513800
     41 N1          -5.4020     1.1360     1.7800 na         1 E4W       0.123800
     42 C4          -6.5370     1.1840     2.7150 c3         1 E4W       0.075900
     43 C           -5.5290    -1.3750     1.2070 c3         1 E4W      -0.030800
     44 H1          -0.4310     2.2930    -2.2380 ha         1 E4W       0.152000
     45 H2           3.3790     5.3060    -1.4290 h1         1 E4W       0.056033
     46 H3           2.3190     6.6980    -1.0670 h1         1 E4W       0.056033
     47 H4           2.6790     5.4950     0.2070 h1         1 E4W       0.056033
     48 H5           2.1070     1.5210    -1.8060 h1         1 E4W       0.074700
     49 H6           3.2080     2.8130    -2.3100 h1         1 E4W       0.074700
     50 H7           6.0980     1.7220     0.3420 ha         1 E4W       0.117000
     51 H8           8.1540     0.4210     0.4970 ha         1 E4W       0.106000
     52 H9           9.3210    -1.7730     0.5270 ha         1 E4W       0.103000
     53 H10          2.3110    -0.2280    -0.1860 ha         1 E4W       0.144000
     54 H11          1.6400    -2.4100    -1.3780 h1         1 E4W       0.050700
     55 H12          1.3720    -2.1390     0.3670 h1         1 E4W       0.050700
     56 H13         -0.4210    -5.4110    -0.1540 hc         1 E4W       0.035200
     57 H14         -0.2130    -4.4770    -1.5980 hc         1 E4W       0.035200
     58 H15         -0.6960    -2.5990    -2.7550 ha         1 E4W       0.107000
     59 H16         -3.3100    -1.2770     2.9960 h1         1 E4W       0.054700
     60 H17         -1.5490    -1.2640     3.2780 h1         1 E4W       0.054700
     61 H18         -2.2700    -0.0140     2.2600 h1         1 E4W       0.054700
     62 H19         -1.8710    -0.6240    -3.7190 ha         1 E4W       0.109000
     63 H21          1.9920    -4.8890    -0.8330 hc         1 E4W       0.057200
     64 H22          1.5960    -4.5260     0.8420 hc         1 E4W       0.057200
     65 H23          5.5600    -3.8090     0.0110 ha         1 E4W       0.132000
     66 H24          8.0180    -3.8820     0.2850 ha         1 E4W       0.107000
     67 H25         -2.3630     5.5400    -2.5120 h1         1 E4W       0.074700
     68 H26         -2.4680     3.7930    -2.7590 h1         1 E4W       0.074700
     69 H27         -2.0040     2.9980     1.0230 h1         1 E4W       0.079200
     70 H28         -2.0830     2.2690    -0.5750 h1         1 E4W       0.079200
     71 H29         -7.4480     0.8580     2.1990 h1         1 E4W       0.050367
     72 H30         -6.3400     0.5140     3.5610 h1         1 E4W       0.050367
     73 H31         -6.6780     2.2060     3.0870 h1         1 E4W       0.050367
     74 H32         -5.4950    -1.7530     2.2350 hc         1 E4W       0.051367
     75 H33         -6.5780    -1.3650     0.8880 hc         1 E4W       0.051367
     76 H34         -4.9970    -2.0890     0.5670 hc         1 E4W       0.051367
     77 C10          2.4980     5.6350    -0.8650 c3         1 E4W       0.068900
     78 C34         -2.3360    -1.0700     2.5400 c3         1 E4W       0.056900
     79 Cl          -3.7230     1.2290    -2.6410 cl         1 E4W      -0.247000
@<TRIPOS>BOND
     1     1     2 2   
     2     1    41 1   
     3     1    43 1   
     4     2     3 1   
     5     2    19 1   
     6     3    39 1   
     7     3    40 2   
     8     4     5 1   
     9     4    36 2   
    10     4    37 1   
    11     5     6 2   
    12     5    44 1   
    13     6     7 1   
    14     6    35 1   
    15     7    34 1   
    16     7    48 1   
    17     7    49 1   
    18     8     9 ar  
    19     8    15 ar  
    20     8    34 1   
    21     9    10 ar  
    22     9    50 1   
    23    10    11 ar  
    24    10    13 ar  
    25    11    12 ar  
    26    11    51 1   
    27    12    33 ar  
    28    12    52 1   
    29    13    14 ar  
    30    13    32 ar  
    31    14    15 ar  
    32    14    31 1   
    33    15    53 1   
    34    16    30 1   
    35    16    31 1   
    36    16    54 1   
    37    16    55 1   
    38    17    29 1   
    39    17    30 1   
    40    17    56 1   
    41    17    57 1   
    42    18    24 ar  
    43    18    25 ar  
    44    18    58 1   
    45    19    20 ar  
    46    19    23 ar  
    47    20    25 ar  
    48    20    26 1   
    49    21    22 1   
    50    21    26 1   
    51    21    29 2   
    52    22    27 1   
    53    22    28 1   
    54    23    24 ar  
    55    23    79 1   
    56    24    62 1   
    57    25    29 1   
    58    26    78 1   
    59    30    63 1   
    60    30    64 1   
    61    32    33 ar  
    62    32    65 1   
    63    33    66 1   
    64    35    36 1   
    65    35    77 1   
    66    37    38 1   
    67    37    67 1   
    68    37    68 1   
    69    38    39 1   
    70    39    69 1   
    71    39    70 1   
    72    40    41 1   
    73    41    42 1   
    74    42    71 1   
    75    42    72 1   
    76    42    73 1   
    77    43    74 1   
    78    43    75 1   
    79    43    76 1   
    80    45    77 1   
    81    46    77 1   
    82    47    77 1   
    83    59    78 1   
    84    60    78 1   
    85    61    78 1   
@<TRIPOS>SUBSTRUCTURE
     1 E4W         1 TEMP              0 ****  ****    0 ROOT
