@<TRIPOS>MOLECULE
E4W
   79    85     1     0     0
SMALL
abcg2


@<TRIPOS>ATOM
      1 C1          -5.2140     0.0190     1.0300 cc         1 E4W      -0.118300
      2 C2          -4.0980     0.2330     0.2470 cd         1 E4W      -0.133000
      3 C3          -3.8600     1.6180     0.3410 cd         1 E4W       0.284300
      4 C7          -0.4500     4.4880    -1.3670 cc         1 E4W       0.252300
      5 C8           0.2550     3.2880    -1.5590 cc         1 E4W      -0.204000
      6 C9           1.5690     3.6040    -1.2940 cd         1 E4W      -0.133300
      7 C11          2.7660     2.7300    -1.2930 c3         1 E4W       0.122900
      8 C12          4.1500     0.8560     0.2340 ca         1 E4W      -0.064000
      9 C13          5.5090     0.8270     0.3660 ca         1 E4W      -0.110000
     10 C14          6.1960    -0.4100     0.2810 ca         1 E4W      -0.017000
     11 C15          7.6020    -0.4720     0.4070 ca         1 E4W      -0.113000
     12 C16          8.2610    -1.6690     0.3240 ca         1 E4W      -0.105000
     13 C19          5.4730    -1.6100     0.0670 ca         1 E4W      -0.048000
     14 C20          4.0490    -1.5410    -0.0580 ca         1 E4W       0.185100
     15 C21          3.4090    -0.3300     0.0150 ca         1 E4W      -0.198000
     16 C22          2.0160    -2.7580    -0.3530 c3         1 E4W       0.158600
     17 C24          0.0870    -4.3960    -0.5060 c3         1 E4W       0.031800
     18 C27         -1.9090    -2.5530    -2.2320 ca         1 E4W      -0.069000
     19 C30         -3.3420    -0.7390    -0.5550 ca         1 E4W      -0.009000
     20 C31         -2.3890    -1.6330    -0.0300 ca         1 E4W      -0.048200
     21 C32         -1.0370    -2.8670     1.2630 cc         1 E4W      -0.063300
     22 C33         -0.3130    -3.3450     2.5030 c          1 E4W       0.720200
     23 C29         -3.5220    -0.8010    -1.9320 ca         1 E4W       0.120000
     24 C28         -2.8260    -1.6780    -2.7710 ca         1 E4W      -0.158000
     25 C26         -1.6890    -2.5470    -0.8540 ca         1 E4W      -0.091800
     26 N4          -1.9540    -1.8310     1.2530 na         1 E4W      -0.055700
     27 O2          -0.1980    -4.5780     2.6100 o          1 E4W      -0.697500
     28 O1           0.1310    -2.4730     3.2750 o          1 E4W      -0.697500
     29 C25         -0.8480    -3.3330    -0.0130 cd         1 E4W      -0.186400
     30 C23          1.5710    -4.1940    -0.1760 c3         1 E4W      -0.076400
     31 O            3.4330    -2.7180    -0.2240 os         1 E4W      -0.351100
     32 C18          6.1760    -2.8320    -0.0120 ca         1 E4W      -0.062000
     33 C17          7.5400    -2.8590     0.1130 ca         1 E4W      -0.133000
     34 S1           3.2660     2.3760     0.4400 ss         1 E4W      -0.215000
     35 N2           1.5850     4.9140    -0.9650 na         1 E4W       0.140800
     36 N3           0.3730     5.4610    -1.0140 nd         1 E4W      -0.518800
     37 C6          -1.9100     4.7330    -1.5080 c3         1 E4W       0.028300
     38 S           -2.9170     4.1570    -0.1020 ss         1 E4W      -0.397000
     39 C5          -2.7740     2.3660    -0.3540 c3         1 E4W       0.034300
     40 N           -4.7400     2.1980     1.1290 nc         1 E4W      -0.513800
     41 N1          -5.5470     1.2190     1.5440 na         1 E4W       0.123800
     42 C4          -6.6800     1.5140     2.3860 c3         1 E4W       0.075900
     43 C           -5.9750    -1.2250     1.3070 c3         1 E4W      -0.030800
     44 H1          -0.1290     2.3250    -1.8540 ha         1 E4W       0.152000
     45 H2           3.0790     6.2340    -1.6190 h1         1 E4W       0.056033
     46 H3           2.4680     6.5070     0.0230 h1         1 E4W       0.056033
     47 H4           3.5460     5.1500    -0.2980 h1         1 E4W       0.056033
     48 H5           2.5120     1.7880    -1.7770 h1         1 E4W       0.074700
     49 H6           3.6090     3.1680    -1.8290 h1         1 E4W       0.074700
     50 H7           6.0700     1.7370     0.5360 ha         1 E4W       0.117000
     51 H8           8.1520     0.4470     0.5710 ha         1 E4W       0.106000
     52 H9           9.3390    -1.7030     0.4190 ha         1 E4W       0.103000
     53 H10          2.3340    -0.2510    -0.0720 ha         1 E4W       0.144000
     54 H11          1.7230    -2.3600    -1.3320 h1         1 E4W       0.050700
     55 H12          1.5480    -2.1330     0.4110 h1         1 E4W       0.050700
     56 H13         -0.2130    -5.3750    -0.1270 hc         1 E4W       0.035200
     57 H14         -0.0150    -4.4550    -1.5920 hc         1 E4W       0.035200
     58 H15         -1.3750    -3.2380    -2.8790 ha         1 E4W       0.107000
     59 H16         -3.4940    -1.4880     2.6480 h1         1 E4W       0.054700
     60 H17         -1.8440    -1.4260     3.2790 h1         1 E4W       0.054700
     61 H18         -2.4610    -0.0920     2.3120 h1         1 E4W       0.054700
     62 H19         -3.0180    -1.6700    -3.8350 ha         1 E4W       0.109000
     63 H21          2.1600    -4.8460    -0.8270 hc         1 E4W       0.057200
     64 H22          1.7710    -4.5050     0.8490 hc         1 E4W       0.057200
     65 H23          5.6360    -3.7550    -0.1770 ha         1 E4W       0.132000
     66 H24          8.0690    -3.8010     0.0480 ha         1 E4W       0.107000
     67 H25         -2.1050     5.8040    -1.5800 h1         1 E4W       0.074700
     68 H26         -2.2960     4.2670    -2.4170 h1         1 E4W       0.074700
     69 H27         -1.7980     2.0110    -0.0170 h1         1 E4W       0.079200
     70 H28         -2.8340     2.1670    -1.4270 h1         1 E4W       0.079200
     71 H29         -7.6050     1.5470     1.8090 h1         1 E4W       0.050367
     72 H30         -6.7790     0.7620     3.1660 h1         1 E4W       0.050367
     73 H31         -6.5210     2.4810     2.8540 h1         1 E4W       0.050367
     74 H32         -6.0120    -1.4500     2.3750 hc         1 E4W       0.051367
     75 H33         -7.0050    -1.1530     0.9540 hc         1 E4W       0.051367
     76 H34         -5.5060    -2.0680     0.8040 hc         1 E4W       0.051367
     77 C10          2.7350     5.7480    -0.7060 c3         1 E4W       0.068900
     78 C34         -2.4730    -1.1730     2.4350 c3         1 E4W       0.056900
     79 CL          -4.6800     0.2600    -2.6820 cl         1 E4W      -0.247000
@<TRIPOS>BOND
     1     1     2 2   
     2     1    41 1   
     3     1    43 1   
     4     2     3 1   
     5     2    19 1   
     6     3    39 1   
     7     3    40 2   
     8     4     5 1   
     9     4    36 2   
    10     4    37 1   
    11     5     6 2   
    12     5    44 1   
    13     6     7 1   
    14     6    35 1   
    15     7    34 1   
    16     7    48 1   
    17     7    49 1   
    18     8     9 ar  
    19     8    15 ar  
    20     8    34 1   
    21     9    10 ar  
    22     9    50 1   
    23    10    11 ar  
    24    10    13 ar  
    25    11    12 ar  
    26    11    51 1   
    27    12    33 ar  
    28    12    52 1   
    29    13    14 ar  
    30    13    32 ar  
    31    14    15 ar  
    32    14    31 1   
    33    15    53 1   
    34    16    30 1   
    35    16    31 1   
    36    16    54 1   
    37    16    55 1   
    38    17    29 1   
    39    17    30 1   
    40    17    56 1   
    41    17    57 1   
    42    18    24 ar  
    43    18    25 ar  
    44    18    58 1   
    45    19    20 ar  
    46    19    23 ar  
    47    20    25 ar  
    48    20    26 1   
    49    21    22 1   
    50    21    26 1   
    51    21    29 2   
    52    22    27 1   
    53    22    28 1   
    54    23    24 ar  
    55    23    79 1   
    56    24    62 1   
    57    25    29 1   
    58    26    78 1   
    59    30    63 1   
    60    30    64 1   
    61    32    33 ar  
    62    32    65 1   
    63    33    66 1   
    64    35    36 1   
    65    35    77 1   
    66    37    38 1   
    67    37    67 1   
    68    37    68 1   
    69    38    39 1   
    70    39    69 1   
    71    39    70 1   
    72    40    41 1   
    73    41    42 1   
    74    42    71 1   
    75    42    72 1   
    76    42    73 1   
    77    43    74 1   
    78    43    75 1   
    79    43    76 1   
    80    45    77 1   
    81    46    77 1   
    82    47    77 1   
    83    59    78 1   
    84    60    78 1   
    85    61    78 1   
@<TRIPOS>SUBSTRUCTURE
     1 E4W         1 TEMP              0 ****  ****    0 ROOT
