@<TRIPOS>MOLECULE
E4X
   48    51     1     0     0
SMALL
No Charge or Current Charge


@<TRIPOS>ATOM
      1 C7         -25.4210    66.0360   103.5460 ca         1 E4X      -0.089000
      2 C6         -25.8580    67.0810   104.3760 ca         1 E4X      -0.040000
      3 C8         -24.9020    66.3160   102.2790 ca         1 E4X      -0.108000
      4 C14        -23.6430    70.4080   101.5560 c3         1 E4X      -0.093100
      5 C12        -26.1770    70.4000   100.9850 c3         1 E4X       0.227200
      6 C11        -25.0860    70.1470   102.0690 c3         1 E4X      -0.016400
      7 C10        -25.2200    68.7210   102.6550 ca         1 E4X      -0.086300
      8 C15        -27.5670    70.0160   101.5040 cc         1 E4X       0.475600
      9 C17        -29.3360    70.1420   102.8230 c          1 E4X       0.657100
     10 C22        -28.6140    72.4580    99.8680 ca         1 E4X      -0.268500
     11 C23        -28.8350    73.4190   100.8750 ca         1 E4X      -0.008000
     12 C24        -30.1110    73.5510   101.4520 ca         1 E4X      -0.109500
     13 C25        -31.1640    72.7280   101.0210 ca         1 E4X       0.036100
     14 O29        -26.4490    73.5940    98.8320 o          1 E4X      -0.537500
     15 S21        -26.9720    72.2690    99.1680 sy         1 E4X       1.149600
     16 O28        -26.9150    71.1500    98.2260 o          1 E4X      -0.537500
     17 C27        -29.6770    71.6390    99.4310 ca         1 E4X      -0.008000
     18 C26        -30.9510    71.7770   100.0100 ca         1 E4X      -0.109500
     19 Br3        -32.8930    72.8980   101.8200 br         1 E4X      -0.073100
     20 N13        -26.0810    71.8160   100.5010 n7         1 E4X      -0.894300
     21 N19        -28.3250    69.0400   101.0920 n2         1 E4X      -0.447300
     22 N18        -29.4270    69.1240   101.9140 ns         1 E4X      -0.393400
     23 O16        -28.1350    70.6980   102.5430 os         1 E4X      -0.377700
     24 O20        -30.1380    70.4690   103.6800 o          1 E4X      -0.496000
     25 C5         -25.7680    68.4340   103.9460 ca         1 E4X      -0.022000
     26 C4         -26.2430    69.4400   104.8280 ca         1 E4X      -0.104000
     27 C3         -26.7780    69.1080   106.0840 ca         1 E4X      -0.098000
     28 C2         -26.8510    67.7710   106.4920 ca         1 E4X      -0.103000
     29 C1         -26.3920    66.7600   105.6380 ca         1 E4X      -0.100000
     30 C9         -24.8070    67.6420   101.8390 ca         1 E4X      -0.095000
     31 H1         -25.4930    65.0020   103.8790 ha         1 E4X       0.116000
     32 H2         -24.5740    65.5040   101.6340 ha         1 E4X       0.117000
     33 H3         -22.9090    70.0840   102.3040 hc         1 E4X       0.043700
     34 H4         -23.4390    69.8720   100.6210 hc         1 E4X       0.043700
     35 H5         -23.4740    71.4770   101.3770 hc         1 E4X       0.043700
     36 H6         -25.9630    69.7100   100.1560 h1         1 E4X       0.090700
     37 H7         -25.2350    70.9040   102.8410 hc         1 E4X       0.080700
     38 H8         -28.0190    74.0510   101.2220 ha         1 E4X       0.141000
     39 H9         -30.2780    74.2850   102.2350 ha         1 E4X       0.136500
     40 H10        -29.5210    70.8900    98.6560 ha         1 E4X       0.141000
     41 H11        -31.7680    71.1410    99.6790 ha         1 E4X       0.136500
     42 H12        -25.1430    71.9790   100.1400 hn         1 E4X       0.501000
     43 H13        -30.2480    68.5160   101.9100 hn         1 E4X       0.500000
     44 H14        -26.2240    70.4920   104.5730 ha         1 E4X       0.117000
     45 H15        -27.1390    69.8950   106.7440 ha         1 E4X       0.118000
     46 H16        -27.2660    67.5180   107.4660 ha         1 E4X       0.117000
     47 H17        -26.4560    65.7220   105.9590 ha         1 E4X       0.114000
     48 H18        -24.4110    67.8230   100.8430 ha         1 E4X       0.111000
@<TRIPOS>BOND
     1     1     2 ar  
     2     1     3 ar  
     3     1    31 1   
     4     2    25 ar  
     5     2    29 ar  
     6     3    30 ar  
     7     3    32 1   
     8     4     6 1   
     9     4    33 1   
    10     4    34 1   
    11     4    35 1   
    12     5     6 1   
    13     5     8 1   
    14     5    20 1   
    15     5    36 1   
    16     6     7 1   
    17     6    37 1   
    18     7    25 ar  
    19     7    30 ar  
    20     8    21 2   
    21     8    23 1   
    22     9    22 1   
    23     9    23 1   
    24     9    24 2   
    25    10    11 ar  
    26    10    15 1   
    27    10    17 ar  
    28    11    12 ar  
    29    11    38 1   
    30    12    13 ar  
    31    12    39 1   
    32    13    18 ar  
    33    13    19 1   
    34    14    15 2   
    35    15    16 2   
    36    15    20 1   
    37    17    18 ar  
    38    17    40 1   
    39    18    41 1   
    40    20    42 1   
    41    21    22 1   
    42    22    43 1   
    43    25    26 ar  
    44    26    27 ar  
    45    26    44 1   
    46    27    28 ar  
    47    27    45 1   
    48    28    29 ar  
    49    28    46 1   
    50    29    47 1   
    51    30    48 1   
@<TRIPOS>SUBSTRUCTURE
     1 E4X         1 TEMP              0 ****  ****    0 ROOT
