@<TRIPOS>MOLECULE
E4X
   48    51     1     0     0
SMALL
abcg2


@<TRIPOS>ATOM
      1 C7         -25.6090    66.0800   103.4830 ca         1 E4X      -0.089000
      2 C6         -25.9690    67.1440   104.3400 ca         1 E4X      -0.040000
      3 C8         -25.0780    66.3360   102.2510 ca         1 E4X      -0.108000
      4 C14        -23.6480    70.3850   101.5580 c3         1 E4X      -0.093100
      5 C12        -26.1220    70.3590   100.9530 c3         1 E4X       0.227200
      6 C11        -25.0670    70.1330   102.0650 c3         1 E4X      -0.016400
      7 C10        -25.2350    68.7330   102.6190 ca         1 E4X      -0.086300
      8 C15        -27.4760    69.9690   101.4350 cc         1 E4X       0.475600
      9 C17        -29.2560    70.0590   102.6920 c          1 E4X       0.657100
     10 C22        -28.6310    72.4110    99.9450 ca         1 E4X      -0.268500
     11 C23        -28.8480    73.3630   100.9330 ca         1 E4X      -0.008000
     12 C24        -30.1000    73.4700   101.5100 ca         1 E4X      -0.109500
     13 C25        -31.1170    72.6240   101.0840 ca         1 E4X       0.036100
     14 O29        -26.5040    73.5820    98.9300 o          1 E4X      -0.537500
     15 S21        -27.0070    72.2590    99.2590 sy         1 E4X       1.149600
     16 O28        -27.0490    71.2280    98.2340 o          1 E4X      -0.537500
     17 C27        -29.6490    71.5790    99.5090 ca         1 E4X      -0.008000
     18 C26        -30.9070    71.6850   100.0860 ca         1 E4X      -0.109500
     19 BR3        -32.8120    72.7490   101.8870 br         1 E4X      -0.073100
     20 N13        -26.1270    71.7660   100.5730 n7         1 E4X      -0.894300
     21 N19        -28.1920    69.0020   101.0160 n2         1 E4X      -0.447300
     22 N18        -29.2980    69.0480   101.7990 ns         1 E4X      -0.393400
     23 O16        -28.0470    70.6550   102.4460 os         1 E4X      -0.377700
     24 O20        -30.0320    70.4240   103.5320 o          1 E4X      -0.496000
     25 C5         -25.7780    68.4910   103.9160 ca         1 E4X      -0.022000
     26 C4         -26.1410    69.5210   104.8220 ca         1 E4X      -0.104000
     27 C3         -26.6670    69.2360   106.0520 ca         1 E4X      -0.098000
     28 C2         -26.8630    67.9020   106.4580 ca         1 E4X      -0.103000
     29 C1         -26.5170    66.8820   105.6180 ca         1 E4X      -0.100000
     30 C9         -24.8960    67.6640   101.8270 ca         1 E4X      -0.095000
     31 H1         -25.7600    65.0610   103.8190 ha         1 E4X       0.116000
     32 H2         -24.7990    65.5230   101.5940 ha         1 E4X       0.117000
     33 H3         -22.9320    70.1640   102.3490 hc         1 E4X       0.043700
     34 H4         -23.3990    69.7660   100.6960 hc         1 E4X       0.043700
     35 H5         -23.4890    71.4260   101.2760 hc         1 E4X       0.043700
     36 H6         -25.8880    69.7020   100.1080 h1         1 E4X       0.090700
     37 H7         -25.2620    70.8700   102.8440 hc         1 E4X       0.080700
     38 H8         -28.0510    74.0100   101.2740 ha         1 E4X       0.141000
     39 H9         -30.2680    74.2020   102.2880 ha         1 E4X       0.136500
     40 H10        -29.4810    70.8420    98.7370 ha         1 E4X       0.141000
     41 H11        -31.7000    71.0310    99.7540 ha         1 E4X       0.136500
     42 H12        -25.2160    72.2140   100.5830 hn         1 E4X       0.501000
     43 H13        -30.0510    68.3900   101.6720 hn         1 E4X       0.500000
     44 H14        -26.0010    70.5580   104.5540 ha         1 E4X       0.117000
     45 H15        -26.9330    70.0450   106.7210 ha         1 E4X       0.118000
     46 H16        -27.2840    67.6880   107.4320 ha         1 E4X       0.117000
     47 H17        -26.6590    65.8510   105.9190 ha         1 E4X       0.114000
     48 H18        -24.4810    67.8340   100.8410 ha         1 E4X       0.111000
@<TRIPOS>BOND
     1     1     2 ar  
     2     1     3 ar  
     3     1    31 1   
     4     2    25 ar  
     5     2    29 ar  
     6     3    30 ar  
     7     3    32 1   
     8     4     6 1   
     9     4    33 1   
    10     4    34 1   
    11     4    35 1   
    12     5     6 1   
    13     5     8 1   
    14     5    20 1   
    15     5    36 1   
    16     6     7 1   
    17     6    37 1   
    18     7    25 ar  
    19     7    30 ar  
    20     8    21 2   
    21     8    23 1   
    22     9    22 1   
    23     9    23 1   
    24     9    24 2   
    25    10    11 ar  
    26    10    15 1   
    27    10    17 ar  
    28    11    12 ar  
    29    11    38 1   
    30    12    13 ar  
    31    12    39 1   
    32    13    18 ar  
    33    13    19 1   
    34    14    15 2   
    35    15    16 2   
    36    15    20 1   
    37    17    18 ar  
    38    17    40 1   
    39    18    41 1   
    40    20    42 1   
    41    21    22 1   
    42    22    43 1   
    43    25    26 ar  
    44    26    27 ar  
    45    26    44 1   
    46    27    28 ar  
    47    27    45 1   
    48    28    29 ar  
    49    28    46 1   
    50    29    47 1   
    51    30    48 1   
@<TRIPOS>SUBSTRUCTURE
     1 E4X         1 TEMP              0 ****  ****    0 ROOT
