@<TRIPOS>MOLECULE
E4Y
   87    88     1     0     0
SMALL
No Charge or Current Charge


@<TRIPOS>ATOM
      1 C3          30.6080     6.3930    13.7000 c3         1 E4Y       0.078700
      2 C5          31.7420     7.2880    14.2790 c3         1 E4Y      -0.093400
      3 C8          31.2650     8.6480    14.8740 c3         1 E4Y      -0.060700
      4 C10         32.3400     9.2630    15.8180 c3         1 E4Y      -0.072400
      5 C13         31.8690    10.4560    16.6970 c3         1 E4Y      -0.069400
      6 C16         30.5680    10.2250    17.5150 c3         1 E4Y      -0.076400
      7 C19         30.5850     8.9760    18.4320 c3         1 E4Y      -0.098400
      8 C22         29.2160     8.7030    19.0940 c3         1 E4Y       0.106000
      9 C26         27.9870     6.6100    19.7380 c          1 E4Y       0.611700
     10 C27         27.3260     6.4450    18.3790 ca         1 E4Y      -0.108600
     11 C28         28.0850     6.4350    17.1860 ca         1 E4Y      -0.111000
     12 C30         27.4610     6.2880    15.9220 ca         1 E4Y      -0.123600
     13 C31         26.0590     6.1420    15.8750 ca         1 E4Y      -0.082000
     14 C33         25.2950     6.1090    17.0510 ca         1 E4Y       0.137100
     15 C34         25.9300     6.2510    18.3020 ca         1 E4Y      -0.145000
     16 C37         23.0530     5.8930    18.0630 c3         1 E4Y       0.163600
     17 C40         21.6220     5.6950    17.5380 c3         1 E4Y      -0.095100
     18 C44         28.2520     6.3190    14.6310 c          1 E4Y       0.614700
     19 C50         31.1800     6.3880    20.9030 c3         1 E4Y      -0.109100
     20 C54         30.8110     9.6400    13.7740 c3         1 E4Y      -0.089100
     21 C58         31.1400     5.0760    13.0500 c3         1 E4Y       0.158300
     22 C62         30.0330     4.2830    12.3020 c3         1 E4Y      -0.068400
     23 C65         30.5310     3.0170    11.5480 c3         1 E4Y      -0.135700
     24 C67         29.3750     2.2800    10.8310 c3         1 E4Y      -0.079100
     25 C71         31.6670     3.3530    10.5600 c          1 E4Y       0.595100
     26 C75         34.0860     2.9010    10.0230 c3         1 E4Y       0.097000
     27 C78         34.0440     2.0270     8.7500 c3         1 E4Y      -0.096400
     28 C81         35.3380     2.0790     7.9070 c3         1 E4Y      -0.071400
     29 C84         35.6420     3.4640     7.2990 c3         1 E4Y      -0.092100
     30 N1          29.6110     6.1350    14.7520 ns         1 E4Y      -0.497900
     31 N25         29.1530     7.4150    19.8360 n          1 E4Y      -0.407800
     32 N73         32.8750     2.7520    10.8330 ns         1 E4Y      -0.511900
     33 O36         23.9300     5.9410    16.9250 os         1 E4Y      -0.346100
     34 O45         27.7270     6.5350    13.5470 o          1 E4Y      -0.595100
     35 O46         27.5690     5.9780    20.7030 o          1 E4Y      -0.599100
     36 O60         31.7340     4.2250    14.0450 oh         1 E4Y      -0.666000
     37 O72         31.5130     4.1060     9.6070 o          1 E4Y      -0.605100
     38 H1          30.1230     6.9640    12.8970 h1         1 E4Y       0.093700
     39 H2          32.2560     6.7220    15.0650 hc         1 E4Y       0.042200
     40 H3          32.4890     7.4800    13.4990 hc         1 E4Y       0.042200
     41 H4          30.3860     8.4380    15.4900 hc         1 E4Y       0.052700
     42 H5          32.7200     8.4810    16.4870 hc         1 E4Y       0.036200
     43 H6          33.2010     9.5840    15.2190 hc         1 E4Y       0.036200
     44 H7          32.6790    10.7110    17.3920 hc         1 E4Y       0.041200
     45 H8          31.7300    11.3380    16.0610 hc         1 E4Y       0.041200
     46 H9          30.3840    11.1130    18.1330 hc         1 E4Y       0.042200
     47 H10         29.7180    10.1600    16.8250 hc         1 E4Y       0.042200
     48 H11         30.8640     8.0910    17.8520 hc         1 E4Y       0.045700
     49 H12         31.3540     9.1050    19.2030 hc         1 E4Y       0.045700
     50 H13         28.9950     9.5190    19.7950 h1         1 E4Y       0.052200
     51 H14         28.4350     8.7390    18.3250 h1         1 E4Y       0.052200
     52 H15         29.1620     6.5510    17.2540 ha         1 E4Y       0.120000
     53 H16         25.5530     6.0370    14.9180 ha         1 E4Y       0.149000
     54 H17         25.3540     6.2350    19.2230 ha         1 E4Y       0.134000
     55 H18         23.3180     5.0580    18.7240 h1         1 E4Y       0.037200
     56 H19         23.1050     6.8280    18.6360 h1         1 E4Y       0.037200
     57 H20         20.9140     5.6520    18.3740 hc         1 E4Y       0.048700
     58 H21         21.3330     6.5260    16.8840 hc         1 E4Y       0.048700
     59 H22         21.5440     4.7590    16.9720 hc         1 E4Y       0.048700
     60 H23         30.3740     8.3480    21.2990 h1         1 E4Y       0.051200
     61 H24         29.3840     7.0340    21.9240 h1         1 E4Y       0.051200
     62 H25         31.7800     6.3700    21.8210 hc         1 E4Y       0.042367
     63 H26         30.8280     5.3690    20.7010 hc         1 E4Y       0.042367
     64 H27         31.8250     6.7030    20.0750 hc         1 E4Y       0.042367
     65 H28         30.4210    10.5640    14.2140 hc         1 E4Y       0.037367
     66 H29         31.6480     9.9010    13.1150 hc         1 E4Y       0.037367
     67 H30         30.0120     9.2100    13.1600 hc         1 E4Y       0.037367
     68 H31         31.9020     5.3650    12.3130 h1         1 E4Y       0.038700
     69 H32         29.5480     4.9560    11.5840 hc         1 E4Y       0.072200
     70 H33         29.2590     3.9850    13.0200 hc         1 E4Y       0.072200
     71 H34         30.9310     2.3230    12.2970 hc         1 E4Y       0.058700
     72 H35         28.6000     1.9840    11.5480 hc         1 E4Y       0.044033
     73 H36         28.9130     2.9200    10.0700 hc         1 E4Y       0.044033
     74 H37         29.7450     1.3730    10.3370 hc         1 E4Y       0.044033
     75 H38         34.9510     2.6120    10.6350 h1         1 E4Y       0.054700
     76 H39         34.2030     3.9580     9.7500 h1         1 E4Y       0.054700
     77 H40         33.1940     2.3290     8.1260 hc         1 E4Y       0.043700
     78 H41         33.8620     0.9860     9.0450 hc         1 E4Y       0.043700
     79 H42         35.2530     1.3510     7.0900 hc         1 E4Y       0.037200
     80 H43         36.1880     1.7600     8.5220 hc         1 E4Y       0.037200
     81 H44         36.5290     3.4110     6.6570 hc         1 E4Y       0.034700
     82 H45         34.8000     3.8140     6.6890 hc         1 E4Y       0.034700
     83 H46         35.8370     4.2060     8.0820 hc         1 E4Y       0.034700
     84 H47         29.9500     5.8850    15.6710 hn         1 E4Y       0.321500
     85 H48         32.9130     2.1610    11.6540 hn         1 E4Y       0.308500
     86 H49         32.4820     4.7210    14.4400 ho         1 E4Y       0.439000
     87 C47         29.9880     7.3470    21.0620 c3         1 E4Y       0.100000
@<TRIPOS>BOND
     1     1     2 1   
     2     1    21 1   
     3     1    30 1   
     4     1    38 1   
     5     2     3 1   
     6     2    39 1   
     7     2    40 1   
     8     3     4 1   
     9     3    20 1   
    10     3    41 1   
    11     4     5 1   
    12     4    42 1   
    13     4    43 1   
    14     5     6 1   
    15     5    44 1   
    16     5    45 1   
    17     6     7 1   
    18     6    46 1   
    19     6    47 1   
    20     7     8 1   
    21     7    48 1   
    22     7    49 1   
    23     8    31 1   
    24     8    50 1   
    25     8    51 1   
    26     9    10 1   
    27     9    31 1   
    28     9    35 2   
    29    10    11 ar  
    30    10    15 ar  
    31    11    12 ar  
    32    11    52 1   
    33    12    13 ar  
    34    12    18 1   
    35    13    14 ar  
    36    13    53 1   
    37    14    15 ar  
    38    14    33 1   
    39    15    54 1   
    40    16    17 1   
    41    16    33 1   
    42    16    55 1   
    43    16    56 1   
    44    17    57 1   
    45    17    58 1   
    46    17    59 1   
    47    18    30 1   
    48    18    34 2   
    49    19    62 1   
    50    19    63 1   
    51    19    64 1   
    52    19    87 1   
    53    20    65 1   
    54    20    66 1   
    55    20    67 1   
    56    21    22 1   
    57    21    36 1   
    58    21    68 1   
    59    22    23 1   
    60    22    69 1   
    61    22    70 1   
    62    23    24 1   
    63    23    25 1   
    64    23    71 1   
    65    24    72 1   
    66    24    73 1   
    67    24    74 1   
    68    25    32 1   
    69    25    37 2   
    70    26    27 1   
    71    26    32 1   
    72    26    75 1   
    73    26    76 1   
    74    27    28 1   
    75    27    77 1   
    76    27    78 1   
    77    28    29 1   
    78    28    79 1   
    79    28    80 1   
    80    29    81 1   
    81    29    82 1   
    82    29    83 1   
    83    30    84 1   
    84    31    87 1   
    85    32    85 1   
    86    36    86 1   
    87    60    87 1   
    88    61    87 1   
@<TRIPOS>SUBSTRUCTURE
     1 E4Y         1 TEMP              0 ****  ****    0 ROOT
