@<TRIPOS>MOLECULE
E4Y
   87    88     1     0     0
SMALL
abcg2


@<TRIPOS>ATOM
      1 C3          30.8410     6.0260    13.8960 c3         1 E4Y       0.078700
      2 C5          31.9740     6.7930    14.5860 c3         1 E4Y      -0.093400
      3 C8          31.5690     8.1920    15.0590 c3         1 E4Y      -0.060700
      4 C10         32.5380     8.7040    16.1260 c3         1 E4Y      -0.072400
      5 C13         32.1240    10.0140    16.7980 c3         1 E4Y      -0.069400
      6 C16         30.7140    10.0110    17.3910 c3         1 E4Y      -0.076400
      7 C19         30.4930     8.9300    18.4420 c3         1 E4Y      -0.098400
      8 C22         29.0610     8.9330    18.9660 c3         1 E4Y       0.106000
      9 C26         27.9140     6.8330    19.6600 c          1 E4Y       0.611700
     10 C27         27.3710     6.6310    18.2750 ca         1 E4Y      -0.108600
     11 C28         28.2020     6.5340    17.1700 ca         1 E4Y      -0.111000
     12 C30         27.6580     6.2780    15.9130 ca         1 E4Y      -0.123600
     13 C31         26.2900     6.1190    15.7700 ca         1 E4Y      -0.082000
     14 C33         25.4560     6.1720    16.8870 ca         1 E4Y       0.137100
     15 C34         26.0000     6.4260    18.1430 ca         1 E4Y      -0.145000
     16 C37         23.2350     6.0130    17.7470 c3         1 E4Y       0.163600
     17 C40         21.8540     5.7280    17.2090 c3         1 E4Y      -0.095100
     18 C44         28.5130     6.2860    14.6820 c          1 E4Y       0.614700
     19 C50         30.5130     6.9740    21.4440 c3         1 E4Y      -0.109100
     20 C54         31.4480     9.1670    13.8920 c3         1 E4Y      -0.089100
     21 C58         31.3180     4.7100    13.2730 c3         1 E4Y       0.158300
     22 C62         30.1750     3.9600    12.6050 c3         1 E4Y      -0.068400
     23 C65         30.6200     2.7880    11.7220 c3         1 E4Y      -0.135700
     24 C67         29.4150     1.9710    11.2640 c3         1 E4Y      -0.079100
     25 C71         31.3810     3.3190    10.5180 c          1 E4Y       0.595100
     26 C75         33.6290     3.5660     9.5190 c3         1 E4Y       0.097000
     27 C78         34.2690     2.4060     8.7650 c3         1 E4Y      -0.096400
     28 C81         35.2840     2.8660     7.7220 c3         1 E4Y      -0.071400
     29 C84         34.6680     3.6220     6.5500 c3         1 E4Y      -0.092100
     30 N1          29.7620     5.8190    14.8410 ns         1 E4Y      -0.497900
     31 N25         28.7690     7.8470    19.8910 n          1 E4Y      -0.407800
     32 N73         32.7090     3.1200    10.5420 ns         1 E4Y      -0.511900
     33 O36         24.1490     5.9710    16.6570 os         1 E4Y      -0.346100
     34 O45         28.0780     6.7260    13.6280 o          1 E4Y      -0.595100
     35 O46         27.5640     6.0550    20.5410 o          1 E4Y      -0.599100
     36 O60         31.8930     3.8450    14.2320 oh         1 E4Y      -0.666000
     37 O72         30.8060     3.9060     9.6080 o          1 E4Y      -0.605100
     38 H1          30.4420     6.6280    13.0770 h1         1 E4Y       0.093700
     39 H2          32.3190     6.2110    15.4480 hc         1 E4Y       0.042200
     40 H3          32.8250     6.8640    13.9000 hc         1 E4Y       0.042200
     41 H4          30.5830     8.1030    15.5290 hc         1 E4Y       0.052700
     42 H5          32.6570     7.9290    16.8900 hc         1 E4Y       0.036200
     43 H6          33.5310     8.8320    15.6810 hc         1 E4Y       0.036200
     44 H7          32.8440    10.2380    17.5910 hc         1 E4Y       0.041200
     45 H8          32.2010    10.8390    16.0850 hc         1 E4Y       0.041200
     46 H9          30.5170    10.9920    17.8350 hc         1 E4Y       0.042200
     47 H10         29.9740     9.8960    16.5910 hc         1 E4Y       0.042200
     48 H11         30.7220     7.9450    18.0260 hc         1 E4Y       0.045700
     49 H12         31.2000     9.0740    19.2650 hc         1 E4Y       0.045700
     50 H13         28.8690     9.8760    19.4870 h1         1 E4Y       0.052200
     51 H14         28.3590     8.9030    18.1350 h1         1 E4Y       0.052200
     52 H15         29.2680     6.6740    17.2910 ha         1 E4Y       0.120000
     53 H16         25.8580     5.9390    14.7940 ha         1 E4Y       0.149000
     54 H17         25.3740     6.4760    19.0230 ha         1 E4Y       0.134000
     55 H18         23.5110     5.2690    18.5010 h1         1 E4Y       0.037200
     56 H19         23.2660     6.9980    18.2250 h1         1 E4Y       0.037200
     57 H20         21.1360     5.7650    18.0270 hc         1 E4Y       0.048700
     58 H21         21.5530     6.4650    16.4650 hc         1 E4Y       0.048700
     59 H22         21.7990     4.7360    16.7590 hc         1 E4Y       0.048700
     60 H23         29.7190     8.9710    21.3400 h1         1 E4Y       0.051200
     61 H24         28.5930     7.7950    21.9760 h1         1 E4Y       0.051200
     62 H25         30.9360     7.1230    22.4380 hc         1 E4Y       0.042367
     63 H26         30.1780     5.9400    21.3750 hc         1 E4Y       0.042367
     64 H27         31.3100     7.1250    20.7160 hc         1 E4Y       0.042367
     65 H28         31.0490    10.1310    14.2100 hc         1 E4Y       0.037367
     66 H29         32.4250     9.3470    13.4370 hc         1 E4Y       0.037367
     67 H30         30.7830     8.7900    13.1130 hc         1 E4Y       0.037367
     68 H31         32.0610     4.9860    12.5110 h1         1 E4Y       0.038700
     69 H32         29.5830     4.6610    12.0100 hc         1 E4Y       0.072200
     70 H33         29.5060     3.5730    13.3790 hc         1 E4Y       0.072200
     71 H34         31.2740     2.1400    12.3110 hc         1 E4Y       0.058700
     72 H35         28.8940     1.5580    12.1280 hc         1 E4Y       0.044033
     73 H36         28.7080     2.5880    10.7100 hc         1 E4Y       0.044033
     74 H37         29.7120     1.1380    10.6260 hc         1 E4Y       0.044033
     75 H38         34.4080     4.1750     9.9860 h1         1 E4Y       0.054700
     76 H39         33.0810     4.2170     8.8410 h1         1 E4Y       0.054700
     77 H40         33.4870     1.8100     8.2850 hc         1 E4Y       0.043700
     78 H41         34.7660     1.7480     9.4840 hc         1 E4Y       0.043700
     79 H42         35.8120     1.9890     7.3410 hc         1 E4Y       0.037200
     80 H43         36.0430     3.4890     8.2050 hc         1 E4Y       0.037200
     81 H44         35.4240     3.8700     5.8040 hc         1 E4Y       0.034700
     82 H45         33.9030     3.0190     6.0560 hc         1 E4Y       0.034700
     83 H46         34.2000     4.5580     6.8600 hc         1 E4Y       0.034700
     84 H47         30.0030     5.3750    15.7140 hn         1 E4Y       0.321500
     85 H48         33.0990     2.6280    11.3300 hn         1 E4Y       0.308500
     86 H49         32.7700     4.1690    14.4590 ho         1 E4Y       0.439000
     87 C47         29.3650     7.9470    21.2210 c3         1 E4Y       0.100000
@<TRIPOS>BOND
     1     1     2 1   
     2     1    21 1   
     3     1    30 1   
     4     1    38 1   
     5     2     3 1   
     6     2    39 1   
     7     2    40 1   
     8     3     4 1   
     9     3    20 1   
    10     3    41 1   
    11     4     5 1   
    12     4    42 1   
    13     4    43 1   
    14     5     6 1   
    15     5    44 1   
    16     5    45 1   
    17     6     7 1   
    18     6    46 1   
    19     6    47 1   
    20     7     8 1   
    21     7    48 1   
    22     7    49 1   
    23     8    31 1   
    24     8    50 1   
    25     8    51 1   
    26     9    10 1   
    27     9    31 1   
    28     9    35 2   
    29    10    11 ar  
    30    10    15 ar  
    31    11    12 ar  
    32    11    52 1   
    33    12    13 ar  
    34    12    18 1   
    35    13    14 ar  
    36    13    53 1   
    37    14    15 ar  
    38    14    33 1   
    39    15    54 1   
    40    16    17 1   
    41    16    33 1   
    42    16    55 1   
    43    16    56 1   
    44    17    57 1   
    45    17    58 1   
    46    17    59 1   
    47    18    30 1   
    48    18    34 2   
    49    19    62 1   
    50    19    63 1   
    51    19    64 1   
    52    19    87 1   
    53    20    65 1   
    54    20    66 1   
    55    20    67 1   
    56    21    22 1   
    57    21    36 1   
    58    21    68 1   
    59    22    23 1   
    60    22    69 1   
    61    22    70 1   
    62    23    24 1   
    63    23    25 1   
    64    23    71 1   
    65    24    72 1   
    66    24    73 1   
    67    24    74 1   
    68    25    32 1   
    69    25    37 2   
    70    26    27 1   
    71    26    32 1   
    72    26    75 1   
    73    26    76 1   
    74    27    28 1   
    75    27    77 1   
    76    27    78 1   
    77    28    29 1   
    78    28    79 1   
    79    28    80 1   
    80    29    81 1   
    81    29    82 1   
    82    29    83 1   
    83    30    84 1   
    84    31    87 1   
    85    32    85 1   
    86    36    86 1   
    87    60    87 1   
    88    61    87 1   
@<TRIPOS>SUBSTRUCTURE
     1 E4Y         1 TEMP              0 ****  ****    0 ROOT
