@<TRIPOS>MOLECULE
E4Z
   53    58     1     0     0
SMALL
No Charge or Current Charge


@<TRIPOS>ATOM
      1 C1          -4.1870     0.9130     2.0430 c          1 E4Z       0.533500
      2 N1          -1.6300    -0.1080     1.5700 na         1 E4Z      -0.191000
      3 O1          -5.2870     1.4210     2.2330 o          1 E4Z      -0.603100
      4 C2          -3.1730     0.8750     3.0690 cc         1 E4Z      -0.397200
      5 O2          -4.8530     0.2530    -0.1280 oh         1 E4Z      -0.481100
      6 O3          -2.9740    -1.2100    -1.6780 o          1 E4Z      -0.513000
      7 C4          -2.5750    -0.3110     0.5380 cc         1 E4Z      -0.035200
      8 O4           1.2030    -3.5690    -0.2230 os         1 E4Z      -0.436000
      9 C5          -3.8220     0.2630     0.7650 cd         1 E4Z       0.038900
     10 C6          -2.2390    -1.0760    -0.7060 c          1 E4Z       0.598200
     11 C7          -0.2040    -1.7220     0.6110 c6         1 E4Z       0.410900
     12 C13          3.0810     0.7950     0.0140 ca         1 E4Z      -0.047300
     13 C14          2.8350     1.0880    -1.4670 c3         1 E4Z       0.075900
     14 C15          0.1350     1.2120    -1.7610 ca         1 E4Z      -0.104000
     15 C16         -0.1140     1.5510    -0.4150 ca         1 E4Z      -0.094300
     16 C17         -0.5820     1.8200    -2.8070 ca         1 E4Z      -0.063000
     17 C18         -1.5630     2.7820    -2.5260 ca         1 E4Z      -0.098000
     18 C19         -1.8160     3.1450    -1.1960 ca         1 E4Z      -0.090000
     19 C20         -1.1000     2.5340    -0.1540 ca         1 E4Z      -0.107000
     20 C21          2.4230     0.4150     2.3390 ca         1 E4Z      -0.095000
     21 C22          3.7620     0.2600     2.7180 ca         1 E4Z      -0.132000
     22 C23          4.7660     0.3780     1.7580 ca         1 E4Z       0.155000
     23 C24          4.4330     0.6460     0.4210 ca         1 E4Z       0.115000
     24 F2           6.0600     0.2350     2.1270 f          1 E4Z      -0.151000
     25 C12          2.0450     0.6830     0.9990 ca         1 E4Z      -0.089300
     26 F1           5.4390     0.7660    -0.4800 f          1 E4Z      -0.158000
     27 S3           1.4580     0.1260    -2.1790 ss         1 E4Z      -0.128000
     28 C11          0.5100     0.8120     0.7970 c3         1 E4Z       0.385100
     29 N2          -0.2760    -0.3800     1.2620 nh         1 E4Z      -0.623400
     30 C8           1.2310    -2.3220     0.5010 c6         1 E4Z       0.143600
     31 C9           0.7820    -3.3840    -1.5870 c6         1 E4Z       0.134600
     32 C10         -0.6540    -2.7940    -1.6580 c6         1 E4Z       0.065000
     33 N3          -0.9830    -1.7240    -0.6590 n          1 E4Z      -0.431800
     34 C3          -1.9200     0.3420     2.8740 cd         1 E4Z       0.074000
     35 H1          -3.4590     1.3050     4.0210 ha         1 E4Z       0.214000
     36 H3          -0.7480    -2.4100     1.2760 h2         1 E4Z       0.058700
     37 H5           3.7210     0.8440    -2.0640 h1         1 E4Z       0.093200
     38 H6          -0.3650     1.5580    -3.8400 ha         1 E4Z       0.135000
     39 H7          -2.1160     3.2510    -3.3360 ha         1 E4Z       0.124000
     40 H8          -2.5760     3.8890    -0.9710 ha         1 E4Z       0.121000
     41 H9          -1.3410     2.8070     0.8710 ha         1 E4Z       0.111000
     42 H10          1.6570     0.3210     3.1070 ha         1 E4Z       0.123000
     43 H11          4.0210     0.0530     3.7530 ha         1 E4Z       0.144000
     44 H12          0.3080     1.5430     1.5920 h1         1 E4Z       0.044700
     45 H13          1.6340    -2.4960     1.5080 h1         1 E4Z       0.063700
     46 H14          1.9050    -1.6360    -0.0210 h1         1 E4Z       0.063700
     47 H15          1.4920    -2.7140    -2.0930 h1         1 E4Z       0.059700
     48 H16          0.8130    -4.3500    -2.1100 h1         1 E4Z       0.059700
     49 H17         -0.8170    -2.4010    -2.6710 h1         1 E4Z       0.065200
     50 H18         -1.3690    -3.6180    -1.5210 h1         1 E4Z       0.065200
     51 H19         -1.1240     0.3180     3.6130 h4         1 E4Z       0.206000
     52 H20         -5.6000     0.7190     0.3160 ho         1 E4Z       0.494000
     53 H4           2.6320     2.1580    -1.6050 h1         1 E4Z       0.093200
@<TRIPOS>BOND
     1     1     3 2   
     2     1     4 1   
     3     1     9 1   
     4     2     7 1   
     5     2    29 1   
     6     2    34 1   
     7     4    34 2   
     8     4    35 1   
     9     5     9 1   
    10     5    52 1   
    11     6    10 2   
    12     7     9 2   
    13     7    10 1   
    14     8    30 1   
    15     8    31 1   
    16    10    33 1   
    17    11    29 1   
    18    11    30 1   
    19    11    33 1   
    20    11    36 1   
    21    12    13 1   
    22    12    23 ar  
    23    12    25 ar  
    24    13    27 1   
    25    13    37 1   
    26    13    53 1   
    27    14    15 ar  
    28    14    16 ar  
    29    14    27 1   
    30    15    19 ar  
    31    15    28 1   
    32    16    17 ar  
    33    16    38 1   
    34    17    18 ar  
    35    17    39 1   
    36    18    19 ar  
    37    18    40 1   
    38    19    41 1   
    39    20    21 ar  
    40    20    25 ar  
    41    20    42 1   
    42    21    22 ar  
    43    21    43 1   
    44    22    23 ar  
    45    22    24 1   
    46    23    26 1   
    47    25    28 1   
    48    28    29 1   
    49    28    44 1   
    50    30    45 1   
    51    30    46 1   
    52    31    32 1   
    53    31    47 1   
    54    31    48 1   
    55    32    33 1   
    56    32    49 1   
    57    32    50 1   
    58    34    51 1   
@<TRIPOS>SUBSTRUCTURE
     1 E4Z         1 TEMP              0 ****  ****    0 ROOT
