@<TRIPOS>MOLECULE
E4Z
   53    58     1     0     0
SMALL
abcg2


@<TRIPOS>ATOM
      1 C1          -4.4030     0.5510     0.2470 c          1 E4Z       0.533500
      2 N1          -1.7620    -0.1550     0.7900 na         1 E4Z      -0.191000
      3 O1          -5.5670     0.8260    -0.0860 o          1 E4Z      -0.603100
      4 C2          -3.7380     0.9630     1.4300 cc         1 E4Z      -0.397200
      5 O2          -4.3090    -0.7880    -1.6810 oh         1 E4Z      -0.481100
      6 O3          -2.0350    -2.1940    -2.1200 o          1 E4Z      -0.513000
      7 C4          -2.3440    -0.6770    -0.3480 cc         1 E4Z      -0.035200
      8 O4           1.3650    -3.6200     1.0820 os         1 E4Z      -0.436000
      9 C5          -3.6340    -0.3320    -0.6340 cd         1 E4Z       0.038900
     10 C6          -1.6110    -1.7520    -1.0680 c          1 E4Z       0.598200
     11 C7          -0.1480    -1.7830     0.8920 c6         1 E4Z       0.410900
     12 C13          2.4320     0.5950    -0.5290 ca         1 E4Z      -0.047300
     13 C14          1.7400     0.7940    -1.8570 c3         1 E4Z       0.075900
     14 C15         -0.4560     2.1260    -0.8980 ca         1 E4Z      -0.104000
     15 C16         -0.1780     2.0480     0.4660 ca         1 E4Z      -0.094300
     16 C17         -1.0670     3.2560    -1.4300 ca         1 E4Z      -0.063000
     17 C18         -1.3820     4.3310    -0.6110 ca         1 E4Z      -0.098000
     18 C19         -1.0670     4.2820     0.7390 ca         1 E4Z      -0.090000
     19 C20         -0.4720     3.1460     1.2680 ca         1 E4Z      -0.107000
     20 C21          2.7440     0.5420     1.8630 ca         1 E4Z      -0.095000
     21 C22          4.1090     0.3530     1.7370 ca         1 E4Z      -0.132000
     22 C23          4.6320     0.2750     0.4690 ca         1 E4Z       0.155000
     23 C24          3.8050     0.4070    -0.6300 ca         1 E4Z       0.115000
     24 F2           5.9380     0.0900     0.2750 f          1 E4Z      -0.151000
     25 C12          1.8900     0.6420     0.7650 ca         1 E4Z      -0.089300
     26 F1           4.3730     0.3640    -1.8410 f          1 E4Z      -0.158000
     27 S3          -0.0580     0.7770    -1.9580 ss         1 E4Z      -0.128000
     28 C11          0.4260     0.8220     1.1200 c3         1 E4Z       0.385100
     29 N2          -0.4160    -0.3750     0.9440 nh         1 E4Z      -0.623400
     30 C8           1.2770    -2.2250     1.2160 c6         1 E4Z       0.143600
     31 C9           1.2330    -3.9740    -0.2780 c6         1 E4Z       0.134600
     32 C10         -0.1510    -3.6430    -0.7900 c6         1 E4Z       0.065000
     33 N3          -0.5240    -2.2770    -0.4400 n          1 E4Z      -0.431800
     34 C3          -2.4460     0.5940     1.6630 cd         1 E4Z       0.074000
     35 H1          -4.2500     1.5760     2.1580 ha         1 E4Z       0.214000
     36 H3          -0.7920    -2.2710     1.6390 h2         1 E4Z       0.058700
     37 H5           2.0380     0.0040    -2.5490 h1         1 E4Z       0.093200
     38 H6          -1.2820     3.2970    -2.4900 ha         1 E4Z       0.135000
     39 H7          -1.8560     5.2070    -1.0310 ha         1 E4Z       0.124000
     40 H8          -1.2940     5.1200     1.3840 ha         1 E4Z       0.121000
     41 H9          -0.2490     3.1050     2.3280 ha         1 E4Z       0.111000
     42 H10          2.3220     0.5950     2.8590 ha         1 E4Z       0.123000
     43 H11          4.7480     0.2660     2.6050 ha         1 E4Z       0.144000
     44 H12          0.4420     1.0540     2.1890 h1         1 E4Z       0.044700
     45 H13          1.5120    -1.9650     2.2480 h1         1 E4Z       0.063700
     46 H14          2.0060    -1.7500     0.5550 h1         1 E4Z       0.063700
     47 H15          1.9970    -3.4640    -0.8800 h1         1 E4Z       0.059700
     48 H16          1.4020    -5.0480    -0.3620 h1         1 E4Z       0.059700
     49 H17         -0.1690    -3.7610    -1.8710 h1         1 E4Z       0.065200
     50 H18         -0.8790    -4.3440    -0.3670 h1         1 E4Z       0.065200
     51 H19         -1.9120     0.9010     2.5500 h4         1 E4Z       0.206000
     52 H20         -5.1960    -0.3870    -1.5980 ho         1 E4Z       0.494000
     53 H4           2.0920     1.7320    -2.2920 h1         1 E4Z       0.093200
@<TRIPOS>BOND
     1     1     3 2   
     2     1     4 1   
     3     1     9 1   
     4     2     7 1   
     5     2    29 1   
     6     2    34 1   
     7     4    34 2   
     8     4    35 1   
     9     5     9 1   
    10     5    52 1   
    11     6    10 2   
    12     7     9 2   
    13     7    10 1   
    14     8    30 1   
    15     8    31 1   
    16    10    33 1   
    17    11    29 1   
    18    11    30 1   
    19    11    33 1   
    20    11    36 1   
    21    12    13 1   
    22    12    23 ar  
    23    12    25 ar  
    24    13    27 1   
    25    13    37 1   
    26    13    53 1   
    27    14    15 ar  
    28    14    16 ar  
    29    14    27 1   
    30    15    19 ar  
    31    15    28 1   
    32    16    17 ar  
    33    16    38 1   
    34    17    18 ar  
    35    17    39 1   
    36    18    19 ar  
    37    18    40 1   
    38    19    41 1   
    39    20    21 ar  
    40    20    25 ar  
    41    20    42 1   
    42    21    22 ar  
    43    21    43 1   
    44    22    23 ar  
    45    22    24 1   
    46    23    26 1   
    47    25    28 1   
    48    28    29 1   
    49    28    44 1   
    50    30    45 1   
    51    30    46 1   
    52    31    32 1   
    53    31    47 1   
    54    31    48 1   
    55    32    33 1   
    56    32    49 1   
    57    32    50 1   
    58    34    51 1   
@<TRIPOS>SUBSTRUCTURE
     1 E4Z         1 TEMP              0 ****  ****    0 ROOT
