@<TRIPOS>MOLECULE
E50
   37    38     1     0     0
SMALL
abcg2


@<TRIPOS>ATOM
      1 N1          -5.3020    -1.4050     0.1230 nb         1 E50      -0.177500
      2 C2          -4.1930    -0.6770     0.1420 ca         1 E50       0.206300
      3 N3          -4.1240     0.6400     0.1990 nb         1 E50      -0.177500
      4 C4          -5.2810     1.2910     0.2340 ca         1 E50       0.120900
      5 C5          -6.5120     0.6510     0.2140 ca         1 E50      -0.190300
      6 C6          -6.4440    -0.7370     0.1590 ca         1 E50       0.120900
      7 S7          -2.7290    -1.6450     0.0860 ss         1 E50      -0.221300
      8 C8          -1.4660    -0.3550     0.1240 c3         1 E50      -0.091400
      9 C9          -0.1140    -1.0150     0.0610 c          1 E50       0.595700
     10 O10         -0.0080    -2.2190     0.0030 o          1 E50      -0.493100
     11 C11         -7.8110     1.3970     0.2100 c3         1 E50      -0.021100
     12 C12         -8.2560     1.7660    -1.2040 c3         1 E50      -0.088100
     13 C13          1.0840    -0.1350     0.0690 ca         1 E50      -0.195600
     14 C14          2.3420    -0.7280    -0.0160 ca         1 E50       0.041000
     15 C15          3.4870     0.0470    -0.0200 ca         1 E50      -0.272500
     16 C16          3.3840     1.4360     0.0640 ca         1 E50       0.236000
     17 C17          2.1370     2.0330     0.1520 ca         1 E50      -0.142000
     18 C18          0.9950     1.2510     0.1550 ca         1 E50      -0.014000
     19 S19          5.0640    -0.7810    -0.1080 sy         1 E50       1.158600
     20 O20          5.9120    -0.2800     0.9570 o          1 E50      -0.537500
     21 CL21         4.7690     2.4500     0.0470 cl         1 E50      -0.153000
     22 O22          4.7760    -2.2040    -0.1780 o          1 E50      -0.537500
     23 N23          5.6660    -0.2290    -1.5270 n8         1 E50      -1.040100
     24 H4          -5.2230     2.3740     0.2850 h4         1 E50       0.025100
     25 H6          -7.3520    -1.3330     0.1490 h4         1 E50       0.025100
     26 H8          -1.5920     0.3290    -0.7180 h1         1 E50       0.098200
     27 H8A         -1.5530     0.2400     1.0350 h1         1 E50       0.098200
     28 H11         -8.5800     0.7890     0.6910 hc         1 E50       0.050200
     29 H11A        -7.7120     2.3040     0.8120 hc         1 E50       0.050200
     30 H12         -7.5190     2.4010    -1.6950 hc         1 E50       0.038367
     31 H12A        -8.3930     0.8750    -1.8180 hc         1 E50       0.038367
     32 H12B        -9.2030     2.3060    -1.1810 hc         1 E50       0.038367
     33 H14          2.4220    -1.8040    -0.0800 ha         1 E50       0.167000
     34 H17          2.0570     3.1090     0.2160 ha         1 E50       0.137000
     35 H18          0.0380     1.7500     0.2270 ha         1 E50       0.126000
     36 HN23         6.6400     0.0470    -1.4750 hn         1 E50       0.490500
     37 HN2A         5.4710    -0.8260    -2.3210 hn         1 E50       0.490500
@<TRIPOS>BOND
     1     1     2 ar  
     2     1     6 ar  
     3     2     3 ar  
     4     2     7 1   
     5     3     4 ar  
     6     4     5 ar  
     7     4    24 1   
     8     5     6 ar  
     9     5    11 1   
    10     6    25 1   
    11     7     8 1   
    12     8     9 1   
    13     8    26 1   
    14     8    27 1   
    15     9    10 2   
    16     9    13 1   
    17    11    12 1   
    18    11    28 1   
    19    11    29 1   
    20    12    30 1   
    21    12    31 1   
    22    12    32 1   
    23    13    14 ar  
    24    13    18 ar  
    25    14    15 ar  
    26    14    33 1   
    27    15    16 ar  
    28    15    19 1   
    29    16    17 ar  
    30    16    21 1   
    31    17    18 ar  
    32    17    34 1   
    33    18    35 1   
    34    19    20 2   
    35    19    22 2   
    36    19    23 1   
    37    23    36 1   
    38    23    37 1   
@<TRIPOS>SUBSTRUCTURE
     1 E50         1 TEMP              0 ****  ****    0 ROOT
