@<TRIPOS>MOLECULE
E50
   37    38     1     0     0
SMALL
No Charge or Current Charge


@<TRIPOS>ATOM
      1 N1          -5.5090    -1.5010     0.1340 nb         1 E50      -0.177500
      2 C2          -4.3490    -0.8100     0.1310 ca         1 E50       0.206300
      3 N3          -4.2350     0.5370     0.1650 nb         1 E50      -0.177500
      4 C4          -5.3780     1.2490     0.2060 ca         1 E50       0.120900
      5 C5          -6.6380     0.6220     0.2140 ca         1 E50      -0.190300
      6 C6          -6.6500    -0.7850     0.1750 ca         1 E50       0.120900
      7 S7          -2.8460    -1.7850     0.0750 ss         1 E50      -0.221300
      8 C8          -1.4730    -0.5250     0.0750 c3         1 E50      -0.091400
      9 C9          -0.0590    -1.1340     0.0290 c          1 E50       0.595700
     10 O10          0.1030    -2.3490    -0.0010 o          1 E50      -0.493100
     11 C11         -7.9270     1.4300     0.2570 c3         1 E50      -0.021100
     12 C12         -8.2990     2.0000    -1.1240 c3         1 E50      -0.088100
     13 C13          1.1370    -0.2030     0.0200 ca         1 E50      -0.195600
     14 C14          2.4420    -0.7440    -0.0270 ca         1 E50       0.041000
     15 C15          3.5780     0.0950    -0.0330 ca         1 E50      -0.272500
     16 C16          3.4070     1.4960    -0.0010 ca         1 E50       0.236000
     17 C17          2.1130     2.0350     0.0450 ca         1 E50      -0.142000
     18 C18          0.9840     1.2010     0.0580 ca         1 E50      -0.014000
     19 S19          5.2050    -0.6580    -0.0870 sy         1 E50       1.158600
     20 O20          6.1400     0.0240     0.8030 o          1 E50      -0.537500
     21 Cl21         4.7550     2.6360    -0.0410 cl         1 E50      -0.153000
     22 O22          5.1020    -2.1150    -0.1200 o          1 E50      -0.537500
     23 N23          5.7540    -0.2760    -1.5720 n8         1 E50      -1.040100
     24 H4          -5.2810     2.3330     0.2330 h4         1 E50       0.025100
     25 H6          -7.5820    -1.3480     0.1760 h4         1 E50       0.025100
     26 H8          -1.5840     0.1280    -0.7990 h1         1 E50       0.098200
     27 H8A         -1.5450     0.0850     0.9830 h1         1 E50       0.098200
     28 H11         -8.7550     0.8090     0.6210 hc         1 E50       0.050200
     29 H11A        -7.8270     2.2580     0.9690 hc         1 E50       0.050200
     30 H12         -7.5110     2.6660    -1.4940 hc         1 E50       0.038367
     31 H12A        -8.4380     1.1900    -1.8510 hc         1 E50       0.038367
     32 H12B        -9.2330     2.5720    -1.0630 hc         1 E50       0.038367
     33 H14          2.5720    -1.8260    -0.0570 ha         1 E50       0.167000
     34 H17          1.9840     3.1130     0.0680 ha         1 E50       0.137000
     35 H18          0.0020     1.6660     0.0950 ha         1 E50       0.126000
     36 HN23         6.6120     0.2100    -1.3180 hn         1 E50       0.490500
     37 HN2A         6.1070    -1.1830    -1.8700 hn         1 E50       0.490500
@<TRIPOS>BOND
     1     1     2 ar  
     2     1     6 ar  
     3     2     3 ar  
     4     2     7 1   
     5     3     4 ar  
     6     4     5 ar  
     7     4    24 1   
     8     5     6 ar  
     9     5    11 1   
    10     6    25 1   
    11     7     8 1   
    12     8     9 1   
    13     8    26 1   
    14     8    27 1   
    15     9    10 2   
    16     9    13 1   
    17    11    12 1   
    18    11    28 1   
    19    11    29 1   
    20    12    30 1   
    21    12    31 1   
    22    12    32 1   
    23    13    14 ar  
    24    13    18 ar  
    25    14    15 ar  
    26    14    33 1   
    27    15    16 ar  
    28    15    19 1   
    29    16    17 ar  
    30    16    21 1   
    31    17    18 ar  
    32    17    34 1   
    33    18    35 1   
    34    19    20 2   
    35    19    22 2   
    36    19    23 1   
    37    23    36 1   
    38    23    37 1   
@<TRIPOS>SUBSTRUCTURE
     1 E50         1 TEMP              0 ****  ****    0 ROOT
