@<TRIPOS>MOLECULE
E51
   76    77     1     0     0
SMALL
No Charge or Current Charge


@<TRIPOS>ATOM
      1 C2          27.2130     6.7800    17.9590 c3         1 E51      -0.297400
      2 C5          27.5230     5.4440    17.2130 c3         1 E51      -0.105700
      3 C10         29.9180     6.1030    14.2540 c3         1 E51       0.079700
      4 C12         30.9640     7.1880    14.6500 c3         1 E51      -0.090400
      5 C15         30.4360     8.3520    15.5470 c3         1 E51      -0.056700
      6 C17         31.6040     9.2620    16.0300 c3         1 E51      -0.070400
      7 C20         31.2520    10.2540    17.1710 c3         1 E51      -0.032100
      8 C23         30.8790     9.5490    18.4720 ca         1 E51      -0.075300
      9 C24         29.5280     9.3400    18.8150 ca         1 E51      -0.108000
     10 C26         29.1850     8.6280    19.9820 ca         1 E51      -0.084300
     11 C27         30.2070     8.1630    20.8320 ca         1 E51      -0.081000
     12 C29         31.5550     8.3890    20.5070 ca         1 E51      -0.103000
     13 C31         31.8900     9.0720    19.3270 ca         1 E51      -0.100000
     14 C33         27.7230     8.3330    20.3150 c3         1 E51      -0.226100
     15 C36         29.3220     9.1730    14.8440 c3         1 E51      -0.095100
     16 C40         30.5190     4.9550    13.3830 c3         1 E51       0.157300
     17 C44         29.4270     4.0090    12.8120 c3         1 E51      -0.065400
     18 C47         29.9570     2.8960    11.8630 c3         1 E51      -0.133700
     19 C49         28.8160     1.9930    11.3370 c3         1 E51      -0.081100
     20 C53         30.7780     3.4870    10.6990 c          1 E51       0.592100
     21 C60         34.5050     3.1710    10.0460 c3         1 E51      -0.093400
     22 C63         35.5680     3.5720     8.9960 c3         1 E51      -0.071400
     23 C66         35.7340     5.0950     8.8130 c3         1 E51      -0.092100
     24 C7          27.9110     5.7640    15.7520 c          1 E51       0.603100
     25 C71         26.3690     4.4160    17.2850 c3         1 E51      -0.089100
     26 N55         32.1030     3.1190    10.6700 ns         1 E51      -0.512900
     27 N8          29.2440     5.5850    15.4550 ns         1 E51      -0.498900
     28 O42         31.4580     4.1800    14.1490 oh         1 E51      -0.665000
     29 O54         30.2950     4.2360     9.8600 o          1 E51      -0.608100
     30 O70         27.1080     6.1890    14.9330 o          1 E51      -0.600100
     31 S1          27.1480     6.7010    19.7700 s6         1 E51       1.054000
     32 H1          28.0050     7.4980    17.7320 h1         1 E51       0.105700
     33 H2          26.2590     7.2080    17.6280 h1         1 E51       0.105700
     34 H3          28.4040     4.9950    17.6880 hc         1 E51       0.073700
     35 H4          29.1690     6.6000    13.6230 h1         1 E51       0.091700
     36 H5          31.7880     6.6970    15.1830 hc         1 E51       0.043200
     37 H6          31.3990     7.6120    13.7360 hc         1 E51       0.043200
     38 H7          29.9970     7.8980    16.4420 hc         1 E51       0.046700
     39 H8          32.4320     8.6320    16.3770 hc         1 E51       0.041700
     40 H9          31.9910     9.8290    15.1740 hc         1 E51       0.041700
     41 H10         32.1230    10.8980    17.3460 hc         1 E51       0.051200
     42 H11         30.4520    10.9310    16.8520 hc         1 E51       0.051200
     43 H12         28.7440     9.7070    18.1560 ha         1 E51       0.112000
     44 H13         29.9580     7.6150    21.7380 ha         1 E51       0.127000
     45 H14         32.3400     8.0220    21.1640 ha         1 E51       0.120000
     46 H15         32.9360     9.2250    19.0730 ha         1 E51       0.114000
     47 H16         27.0570     9.0640    19.8460 h1         1 E51       0.106700
     48 H17         27.5650     8.3580    21.3990 h1         1 E51       0.106700
     49 H18         28.9130     9.9410    15.5100 hc         1 E51       0.039033
     50 H19         29.7120     9.6680    13.9470 hc         1 E51       0.039033
     51 H20         28.4840     8.5360    14.5450 hc         1 E51       0.039033
     52 H21         31.0350     5.4260    12.5350 h1         1 E51       0.040700
     53 H22         28.6890     4.6150    12.2710 hc         1 E51       0.069700
     54 H23         28.8890     3.5380    13.6440 hc         1 E51       0.069700
     55 H24         30.6230     2.2520    12.4510 hc         1 E51       0.058700
     56 H25         28.2770     1.5230    12.1680 hc         1 E51       0.043700
     57 H26         28.0970     2.5730    10.7450 hc         1 E51       0.043700
     58 H27         29.2190     1.1960    10.7000 hc         1 E51       0.043700
     59 H28         32.9970     4.6710     9.5920 h1         1 E51       0.051200
     60 H29         32.8000     3.1420     8.6980 h1         1 E51       0.051200
     61 H30         34.5420     2.0830    10.1770 hc         1 E51       0.039700
     62 H31         34.7680     3.6160    11.0140 hc         1 E51       0.039700
     63 H32         35.3160     3.1180     8.0300 hc         1 E51       0.041200
     64 H33         36.5340     3.1500     9.2980 hc         1 E51       0.041200
     65 H34         36.5510     5.3060     8.1120 hc         1 E51       0.034367
     66 H35         34.8200     5.5480     8.4120 hc         1 E51       0.034367
     67 H36         35.9720     5.5780     9.7690 hc         1 E51       0.034367
     68 H37         26.1610     4.1260    18.3220 hc         1 E51       0.054033
     69 H38         25.4490     4.8280    16.8530 hc         1 E51       0.054033
     70 H39         26.6290     3.5070    16.7290 hc         1 E51       0.054033
     71 H40         32.4240     2.5080    11.4120 hn         1 E51       0.313500
     72 H41         29.8230     5.1880    16.1850 hn         1 E51       0.319500
     73 H42         32.1870     4.7820    14.4080 ho         1 E51       0.439000
     74 O75         25.7400     6.5600    20.1610 o          1 E51      -0.513500
     75 C57         33.0660     3.5780     9.6710 c3         1 E51       0.103000
     76 O76         28.1220     5.7010    20.2270 o          1 E51      -0.513500
@<TRIPOS>BOND
     1     1     2 1   
     2     1    31 1   
     3     1    32 1   
     4     1    33 1   
     5     2    24 1   
     6     2    25 1   
     7     2    34 1   
     8     3     4 1   
     9     3    16 1   
    10     3    27 1   
    11     3    35 1   
    12     4     5 1   
    13     4    36 1   
    14     4    37 1   
    15     5     6 1   
    16     5    15 1   
    17     5    38 1   
    18     6     7 1   
    19     6    39 1   
    20     6    40 1   
    21     7     8 1   
    22     7    41 1   
    23     7    42 1   
    24     8     9 ar  
    25     8    13 ar  
    26     9    10 ar  
    27     9    43 1   
    28    10    11 ar  
    29    10    14 1   
    30    11    12 ar  
    31    11    44 1   
    32    12    13 ar  
    33    12    45 1   
    34    13    46 1   
    35    14    31 1   
    36    14    47 1   
    37    14    48 1   
    38    15    49 1   
    39    15    50 1   
    40    15    51 1   
    41    16    17 1   
    42    16    28 1   
    43    16    52 1   
    44    17    18 1   
    45    17    53 1   
    46    17    54 1   
    47    18    19 1   
    48    18    20 1   
    49    18    55 1   
    50    19    56 1   
    51    19    57 1   
    52    19    58 1   
    53    20    26 1   
    54    20    29 2   
    55    21    22 1   
    56    21    61 1   
    57    21    62 1   
    58    21    75 1   
    59    22    23 1   
    60    22    63 1   
    61    22    64 1   
    62    23    65 1   
    63    23    66 1   
    64    23    67 1   
    65    24    27 1   
    66    24    30 2   
    67    25    68 1   
    68    25    69 1   
    69    25    70 1   
    70    26    71 1   
    71    26    75 1   
    72    27    72 1   
    73    28    73 1   
    74    31    74 2   
    75    31    76 2   
    76    59    75 1   
    77    60    75 1   
@<TRIPOS>SUBSTRUCTURE
     1 E51         1 TEMP              0 ****  ****    0 ROOT
