@<TRIPOS>MOLECULE
E51
   76    77     1     0     0
SMALL
bcc


@<TRIPOS>ATOM
      1 C2          27.3960     6.8080    17.6740 c3         1 E51      -0.186600
      2 C5          27.4610     5.4150    17.0410 c3         1 E51      -0.105700
      3 C10         30.1320     5.9960    14.4060 c3         1 E51       0.079700
      4 C12         31.2050     6.9820    14.8750 c3         1 E51      -0.090400
      5 C15         30.6680     8.2040    15.6250 c3         1 E51      -0.056700
      6 C17         31.8270     9.0440    16.1680 c3         1 E51      -0.070400
      7 C20         31.4190    10.0900    17.2170 c3         1 E51      -0.032100
      8 C23         30.8940     9.4560    18.4750 ca         1 E51      -0.075300
      9 C24         29.5270     9.3060    18.6940 ca         1 E51      -0.126000
     10 C26         29.0370     8.6370    19.8140 ca         1 E51      -0.084300
     11 C27         29.9330     8.1370    20.7530 ca         1 E51      -0.099000
     12 C29         31.2960     8.3050    20.5630 ca         1 E51      -0.121000
     13 C31         31.7720     8.9480    19.4300 ca         1 E51      -0.118000
     14 C33         27.5660     8.4260    19.9810 c3         1 E51      -0.115300
     15 C36         29.7300     9.0420    14.7610 c3         1 E51      -0.095100
     16 C40         30.7280     4.8130    13.6290 c3         1 E51       0.134100
     17 C44         29.6400     3.8760    13.1270 c3         1 E51      -0.065400
     18 C47         30.1370     2.7640    12.1990 c3         1 E51      -0.133700
     19 C49         28.9860     1.8460    11.7960 c3         1 E51      -0.081100
     20 C53         30.7730     3.3740    10.9630 c          1 E51       0.659100
     21 C60         34.3540     3.4970     9.9690 c3         1 E51      -0.093400
     22 C63         35.2200     3.9440     8.7960 c3         1 E51      -0.071400
     23 C66         35.1650     5.4420     8.5190 c3         1 E51      -0.092100
     24 C7          28.0110     5.6660    15.6380 c          1 E51       0.670100
     25 C71         26.1220     4.6970    17.0060 c3         1 E51      -0.089100
     26 N55         32.0970     3.2030    10.8440 ns         1 E51      -0.579900
     27 N8          29.3440     5.5500    15.5370 ns         1 E51      -0.565900
     28 O42         31.6240     4.0560    14.4160 oh         1 E51      -0.602800
     29 O54         30.1150     3.9960    10.1370 o          1 E51      -0.608100
     30 O70         27.2810     6.0150    14.7230 o          1 E51      -0.600100
     31 S1          27.0400     6.7830    19.4330 s6         1 E51       0.974000
     32 H1          28.3650     7.3030    17.5810 h1         1 E51       0.105700
     33 H2          26.6410     7.4390    17.2020 h1         1 E51       0.105700
     34 H3          28.1790     4.8140    17.6050 hc         1 E51       0.073700
     35 H4          29.4530     6.5040    13.7200 h1         1 E51       0.091700
     36 H5          31.9140     6.4620    15.5290 hc         1 E51       0.043200
     37 H6          31.7720     7.3130    13.9990 hc         1 E51       0.043200
     38 H7          30.1050     7.8400    16.4910 hc         1 E51       0.046700
     39 H8          32.5750     8.3840    16.6190 hc         1 E51       0.041700
     40 H9          32.3290     9.5540    15.3390 hc         1 E51       0.041700
     41 H10         32.2940    10.7000    17.4540 hc         1 E51       0.051200
     42 H11         30.6740    10.7720    16.8010 hc         1 E51       0.051200
     43 H12         28.8290     9.7170    17.9710 ha         1 E51       0.130000
     44 H13         29.5680     7.6270    21.6350 ha         1 E51       0.145000
     45 H14         31.9920     7.9260    21.3000 ha         1 E51       0.138000
     46 H15         32.8400     9.0620    19.2860 ha         1 E51       0.132000
     47 H16         26.9690     9.1450    19.4170 h1         1 E51       0.106700
     48 H17         27.2510     8.4670    21.0260 h1         1 E51       0.106700
     49 H18         29.4180     9.9520    15.2760 hc         1 E51       0.039033
     50 H19         30.2230     9.3420    13.8340 hc         1 E51       0.039033
     51 H20         28.8200     8.5050    14.4950 hc         1 E51       0.039033
     52 H21         31.2500     5.2510    12.7660 h1         1 E51       0.040700
     53 H22         28.8780     4.4660    12.6120 hc         1 E51       0.069700
     54 H23         29.1440     3.4110    13.9840 hc         1 E51       0.069700
     55 H24         30.8790     2.1670    12.7360 hc         1 E51       0.058700
     56 H25         28.5270     1.4070    12.6820 hc         1 E51       0.043700
     57 H26         28.2160     2.3940    11.2540 hc         1 E51       0.043700
     58 H27         29.3290     1.0280    11.1610 hc         1 E51       0.043700
     59 H28         32.6630     4.8030     9.6390 h1         1 E51       0.051200
     60 H29         32.5590     3.2630     8.8020 h1         1 E51       0.051200
     61 H30         34.5190     2.4300    10.1470 hc         1 E51       0.039700
     62 H31         34.6700     4.0190    10.8780 hc         1 E51       0.039700
     63 H32         34.9260     3.3920     7.8980 hc         1 E51       0.041200
     64 H33         36.2530     3.6560     9.0030 hc         1 E51       0.041200
     65 H34         35.8670     5.7200     7.7340 hc         1 E51       0.034367
     66 H35         34.1750     5.7640     8.1950 hc         1 E51       0.034367
     67 H36         35.4230     6.0150     9.4120 hc         1 E51       0.034367
     68 H37         25.7760     4.4680    18.0130 hc         1 E51       0.054033
     69 H38         25.3580     5.2970    16.5150 hc         1 E51       0.054033
     70 H39         26.2080     3.7520    16.4700 hc         1 E51       0.054033
     71 H40         32.5790     2.6740    11.5520 hn         1 E51       0.313500
     72 H41         29.8520     5.2100    16.3400 hn         1 E51       0.319500
     73 H42         32.4670     4.5160    14.4580 ho         1 E51       0.400000
     74 O75         25.5960     6.6860    19.6460 o          1 E51      -0.584300
     75 C57         32.8690     3.7350     9.7410 c3         1 E51       0.103000
     76 O76         27.8980     5.7770    20.0580 o          1 E51      -0.584300
@<TRIPOS>BOND
     1     1     2 1   
     2     1    31 1   
     3     1    32 1   
     4     1    33 1   
     5     2    24 1   
     6     2    25 1   
     7     2    34 1   
     8     3     4 1   
     9     3    16 1   
    10     3    27 1   
    11     3    35 1   
    12     4     5 1   
    13     4    36 1   
    14     4    37 1   
    15     5     6 1   
    16     5    15 1   
    17     5    38 1   
    18     6     7 1   
    19     6    39 1   
    20     6    40 1   
    21     7     8 1   
    22     7    41 1   
    23     7    42 1   
    24     8     9 ar  
    25     8    13 ar  
    26     9    10 ar  
    27     9    43 1   
    28    10    11 ar  
    29    10    14 1   
    30    11    12 ar  
    31    11    44 1   
    32    12    13 ar  
    33    12    45 1   
    34    13    46 1   
    35    14    31 1   
    36    14    47 1   
    37    14    48 1   
    38    15    49 1   
    39    15    50 1   
    40    15    51 1   
    41    16    17 1   
    42    16    28 1   
    43    16    52 1   
    44    17    18 1   
    45    17    53 1   
    46    17    54 1   
    47    18    19 1   
    48    18    20 1   
    49    18    55 1   
    50    19    56 1   
    51    19    57 1   
    52    19    58 1   
    53    20    26 1   
    54    20    29 2   
    55    21    22 1   
    56    21    61 1   
    57    21    62 1   
    58    21    75 1   
    59    22    23 1   
    60    22    63 1   
    61    22    64 1   
    62    23    65 1   
    63    23    66 1   
    64    23    67 1   
    65    24    27 1   
    66    24    30 2   
    67    25    68 1   
    68    25    69 1   
    69    25    70 1   
    70    26    71 1   
    71    26    75 1   
    72    27    72 1   
    73    28    73 1   
    74    31    74 2   
    75    31    76 2   
    76    59    75 1   
    77    60    75 1   
@<TRIPOS>SUBSTRUCTURE
     1 E51         1 TEMP              0 ****  ****    0 ROOT
