@<TRIPOS>MOLECULE
E56
   47    51     1     0     0
SMALL
abcg2


@<TRIPOS>ATOM
      1 C16         23.0750    -8.6240   -21.9880 ca         1 E56      -0.079000
      2 C19         24.0050    -7.4230   -20.0780 cg         1 E56       0.320000
      3 C02         12.5740   -10.2610   -17.2470 ca         1 E56       0.099000
      4 C03         13.0190   -11.3910   -17.8820 ca         1 E56      -0.083000
      5 C04         14.3110   -11.3500   -18.4070 ca         1 E56      -0.077200
      6 C07         16.3260   -10.5730   -18.9570 cc         1 E56       0.432500
      7 C08         17.5250    -9.7850   -19.1720 cc         1 E56      -0.206900
      8 C09         17.9630    -8.6210   -18.5000 cc         1 E56       0.267900
      9 C12         18.5260   -10.0380   -20.0800 cd         1 E56      -0.126000
     10 C13         20.6660    -8.9150   -20.6160 ca         1 E56       0.019800
     11 C14         20.8080    -9.4290   -21.9000 ca         1 E56      -0.111000
     12 C15         22.0110    -9.2870   -22.5740 ca         1 E56      -0.097000
     13 C17         22.9160    -8.1030   -20.7050 ca         1 E56      -0.001000
     14 C18         21.7190    -8.2460   -20.0090 ca         1 E56      -0.063000
     15 C21         15.1150   -10.2100   -18.2930 ca         1 E56      -0.167900
     16 C22         14.6230    -9.0630   -17.6570 ca         1 E56      -0.122000
     17 C23         13.3450    -9.0650   -17.1150 ca         1 E56       0.292000
     18 C25         13.4540    -6.6990   -16.4360 c5         1 E56       0.175500
     19 C26         12.7890    -5.7300   -15.4490 c5         1 E56      -0.114400
     20 C27         12.9310    -4.3430   -16.1200 c5         1 E56       0.135800
     21 C29         13.4030    -5.9110   -17.7580 c5         1 E56       0.103800
     22 N05         15.0400   -12.2650   -19.0920 na         1 E56      -0.051400
     23 N06         16.2410   -11.8050   -19.4160 nd         1 E56      -0.517100
     24 N10         19.1210    -8.2040   -18.9570 nd         1 E56      -0.517800
     25 N11         19.4560    -9.0690   -19.9180 na         1 E56       0.220000
     26 N20         24.8850    -6.8770   -19.5750 n1         1 E56      -0.441000
     27 N24         12.8230    -7.9950   -16.4260 nu         1 E56      -0.932200
     28 N28         13.6460    -4.5290   -17.3860 n7         1 E56      -0.825400
     29 H1          24.0120    -8.5080   -22.5140 ha         1 E56       0.132000
     30 H2          12.3920   -12.2690   -17.9650 ha         1 E56       0.135000
     31 H3          17.4800    -8.0820   -17.6990 h4         1 E56       0.041100
     32 H4          18.6380   -10.8350   -20.7960 h4         1 E56       0.169000
     33 H5          19.9830    -9.9280   -22.3910 ha         1 E56       0.127000
     34 H6          22.1120    -9.6900   -23.5720 ha         1 E56       0.126000
     35 H7          21.6140    -7.8470   -19.0100 ha         1 E56       0.155000
     36 H8          15.2320    -8.1730   -17.5980 ha         1 E56       0.122000
     37 H9          14.5040    -6.8250   -16.1490 h1         1 E56       0.061700
     38 H10         11.7360    -5.9890   -15.3150 hc         1 E56       0.056200
     39 H11         13.2570    -5.7710   -14.4660 hc         1 E56       0.056200
     40 H12         13.4610    -3.6260   -15.4930 h1         1 E56       0.054700
     41 H13         11.9430    -3.9220   -16.3180 h1         1 E56       0.054700
     42 H14         12.4020    -6.0110   -18.1930 h1         1 E56       0.062700
     43 H15         14.1230    -6.2490   -18.5030 h1         1 E56       0.062700
     44 H16         14.7770   -13.2040   -19.3460 hn         1 E56       0.379000
     45 H17         11.8160    -7.9560   -16.3920 hn         1 E56       0.476000
     46 H18         14.6390    -4.4130   -17.2200 hn         1 E56       0.402000
     47 CL1         10.9760   -10.2880   -16.5670 cl         1 E56      -0.206000
@<TRIPOS>BOND
     1     1    12 ar  
     2     1    13 ar  
     3     1    29 1   
     4     2    13 1   
     5     2    26 3   
     6     3     4 ar  
     7     3    17 ar  
     8     3    47 1   
     9     4     5 ar  
    10     4    30 1   
    11     5    15 ar  
    12     5    22 1   
    13     6     7 1   
    14     6    15 1   
    15     6    23 2   
    16     7     8 1   
    17     7     9 2   
    18     8    24 2   
    19     8    31 1   
    20     9    25 1   
    21     9    32 1   
    22    10    11 ar  
    23    10    14 ar  
    24    10    25 1   
    25    11    12 ar  
    26    11    33 1   
    27    12    34 1   
    28    13    14 ar  
    29    14    35 1   
    30    15    16 ar  
    31    16    17 ar  
    32    16    36 1   
    33    17    27 1   
    34    18    19 1   
    35    18    21 1   
    36    18    27 1   
    37    18    37 1   
    38    19    20 1   
    39    19    38 1   
    40    19    39 1   
    41    20    28 1   
    42    20    40 1   
    43    20    41 1   
    44    21    28 1   
    45    21    42 1   
    46    21    43 1   
    47    22    23 1   
    48    22    44 1   
    49    24    25 1   
    50    27    45 1   
    51    28    46 1   
@<TRIPOS>SUBSTRUCTURE
     1 E56         1 TEMP              0 ****  ****    0 ROOT
