@<TRIPOS>MOLECULE
E56
   47    51     1     0     0
SMALL
No Charge or Current Charge


@<TRIPOS>ATOM
      1 C16         23.4010    -9.0120   -21.8730 ca         1 E56      -0.079000
      2 C19         24.5600    -8.9020   -19.6980 cg         1 E56       0.320000
      3 C02         12.8430   -10.0260   -17.1160 ca         1 E56       0.099000
      4 C03         13.2020   -11.0300   -18.0360 ca         1 E56      -0.083000
      5 C04         14.4530   -10.9310   -18.6540 ca         1 E56      -0.077200
      6 C07         16.4960   -10.1980   -19.2290 cc         1 E56       0.432500
      7 C08         17.7110    -9.4300   -19.3370 cc         1 E56      -0.206900
      8 C09         18.0790    -8.2310   -18.6870 cc         1 E56       0.267900
      9 C12         18.7600    -9.7790   -20.1430 cd         1 E56      -0.126000
     10 C13         20.9040    -8.8410   -20.5730 ca         1 E56       0.019800
     11 C14         20.9690    -8.9340   -21.9780 ca         1 E56      -0.111000
     12 C15         22.2140    -9.0210   -22.6250 ca         1 E56      -0.097000
     13 C17         23.3470    -8.9140   -20.4690 ca         1 E56      -0.001000
     14 C18         22.0970    -8.8270   -19.8230 ca         1 E56      -0.063000
     15 C21         15.3280    -9.9170   -18.3980 ca         1 E56      -0.167900
     16 C22         14.9960    -8.9010   -17.4790 ca         1 E56      -0.122000
     17 C23         13.7340    -8.9470   -16.8390 ca         1 E56       0.292000
     18 C25         13.3590    -6.5920   -16.5410 c5         1 E56       0.175500
     19 C26         12.9610    -5.6400   -15.3930 c5         1 E56      -0.114400
     20 C27         12.4590    -4.4480   -16.2430 c5         1 E56       0.135800
     21 C29         12.0770    -6.4870   -17.4330 c5         1 E56       0.103800
     22 N05         15.0430   -11.7670   -19.5700 na         1 E56      -0.051400
     23 N06         16.3150   -11.3270   -19.9390 nd         1 E56      -0.517100
     24 N10         19.2820    -7.7900   -19.0100 nd         1 E56      -0.517800
     25 N11         19.6720    -8.7510   -19.9220 na         1 E56       0.220000
     26 N20         25.5400    -8.8920   -19.0630 n1         1 E56      -0.441000
     27 N24         13.3760    -7.9460   -15.9140 nu         1 E56      -0.932200
     28 N28         11.6110    -5.0710   -17.2990 n7         1 E56      -0.825400
     29 H1          24.3610    -9.0800   -22.3820 ha         1 E56       0.132000
     30 H2          12.5270   -11.8540   -18.2540 ha         1 E56       0.135000
     31 H3          17.5190    -7.6490   -17.9760 h4         1 E56       0.041100
     32 H4          18.9260   -10.6170   -20.8100 h4         1 E56       0.169000
     33 H5          20.0560    -8.9360   -22.5700 ha         1 E56       0.127000
     34 H6          22.2590    -9.0940   -23.7100 ha         1 E56       0.126000
     35 H7          22.0500    -8.7500   -18.7380 ha         1 E56       0.155000
     36 H8          15.6770    -8.0980   -17.2390 ha         1 E56       0.122000
     37 H9          14.2820    -6.2800   -17.0530 h1         1 E56       0.061700
     38 H10         12.1580    -6.0350   -14.7580 hc         1 E56       0.056200
     39 H11         13.8050    -5.3730   -14.7480 hc         1 E56       0.056200
     40 H12         13.3110    -3.9230   -16.7000 h1         1 E56       0.054700
     41 H13         11.8970    -3.7140   -15.6470 h1         1 E56       0.054700
     42 H14         11.2870    -7.1630   -17.0730 h1         1 E56       0.062700
     43 H15         12.2860    -6.7570   -18.4780 h1         1 E56       0.062700
     44 H16         14.6390   -12.6180   -19.9610 hn         1 E56       0.379000
     45 H17         12.5710    -8.2080   -15.3410 hn         1 E56       0.476000
     46 H18         11.7440    -4.5620   -18.1840 hn         1 E56       0.402000
     47 Cl1         11.2690   -10.1300   -16.3160 cl         1 E56      -0.206000
@<TRIPOS>BOND
     1     1    12 ar  
     2     1    13 ar  
     3     1    29 1   
     4     2    13 1   
     5     2    26 3   
     6     3     4 ar  
     7     3    17 ar  
     8     3    47 1   
     9     4     5 ar  
    10     4    30 1   
    11     5    15 ar  
    12     5    22 1   
    13     6     7 1   
    14     6    15 1   
    15     6    23 2   
    16     7     8 1   
    17     7     9 2   
    18     8    24 2   
    19     8    31 1   
    20     9    25 1   
    21     9    32 1   
    22    10    11 ar  
    23    10    14 ar  
    24    10    25 1   
    25    11    12 ar  
    26    11    33 1   
    27    12    34 1   
    28    13    14 ar  
    29    14    35 1   
    30    15    16 ar  
    31    16    17 ar  
    32    16    36 1   
    33    17    27 1   
    34    18    19 1   
    35    18    21 1   
    36    18    27 1   
    37    18    37 1   
    38    19    20 1   
    39    19    38 1   
    40    19    39 1   
    41    20    28 1   
    42    20    40 1   
    43    20    41 1   
    44    21    28 1   
    45    21    42 1   
    46    21    43 1   
    47    22    23 1   
    48    22    44 1   
    49    24    25 1   
    50    27    45 1   
    51    28    46 1   
@<TRIPOS>SUBSTRUCTURE
     1 E56         1 TEMP              0 ****  ****    0 ROOT
