@<TRIPOS>MOLECULE
E59
   35    36     1     0     0
SMALL
No Charge or Current Charge


@<TRIPOS>ATOM
      1 N1           5.4190     0.6380    -0.0390 ns         1 E59      -0.402400
      2 C2           6.3940    -0.2860    -0.0390 c          1 E59       0.566200
      3 C3           5.8660    -1.6340    -0.0370 cc         1 E59      -0.366200
      4 C4           4.5230    -1.9400    -0.0360 cd         1 E59       0.202400
      5 N5           3.5980    -0.8940    -0.0330 nd         1 E59      -0.684300
      6 C6           4.0920     0.3430    -0.0350 cc         1 E59       0.513800
      7 O7           7.5790    -0.0020    -0.0410 o          1 E59      -0.536000
      8 C8           3.9890    -3.3470    -0.0300 c3         1 E59      -0.050900
      9 S9           2.8970     1.6390    -0.0330 ss         1 E59      -0.181200
     10 C10          1.2590     0.7450    -0.0280 c3         1 E59      -0.065400
     11 C11          0.0380     1.6790    -0.0260 c          1 E59       0.588700
     12 O12          0.1770     2.8970    -0.0250 o          1 E59      -0.493100
     13 C13         -1.3500     1.0620    -0.0240 ca         1 E59      -0.123600
     14 C14         -1.5450    -0.3410    -0.0230 ca         1 E59      -0.085000
     15 C15         -2.8410    -0.8870    -0.0220 ca         1 E59      -0.023000
     16 C16         -3.9680    -0.0420    -0.0210 ca         1 E59      -0.238500
     17 C17         -3.7870     1.3550    -0.0190 ca         1 E59      -0.023000
     18 C18         -2.4910     1.8990    -0.0210 ca         1 E59      -0.085000
     19 S19         -5.6260    -0.7410    -0.0180 sy         1 E59       1.126600
     20 O20         -6.6070     0.2350    -0.4880 o          1 E59      -0.539000
     21 O21         -5.6120    -2.1230    -0.4930 o          1 E59      -0.539000
     22 N22         -5.9660    -0.8880     1.5710 n8         1 E59      -1.009100
     23 H1           5.7110     1.6030    -0.0400 hn         1 E59       0.341500
     24 H3           6.6160    -2.4140    -0.0360 ha         1 E59       0.215000
     25 H8           3.7860    -3.6810     0.9930 hc         1 E59       0.056033
     26 H8A          3.0550    -3.4210    -0.6000 hc         1 E59       0.056033
     27 H8B          4.7050    -4.0460    -0.4770 hc         1 E59       0.056033
     28 H10          1.1930     0.1100    -0.9190 h1         1 E59       0.107700
     29 H10A         1.1970     0.1100     0.8620 h1         1 E59       0.107700
     30 H14         -0.7030    -1.0290    -0.0240 ha         1 E59       0.133000
     31 H15         -2.9640    -1.9690    -0.0190 ha         1 E59       0.143000
     32 H17         -4.6470     2.0240    -0.0150 ha         1 E59       0.143000
     33 H18         -2.3800     2.9820    -0.0190 ha         1 E59       0.133000
     34 HN22        -6.8600    -0.4050     1.6110 hn         1 E59       0.478500
     35 HN2A        -6.2500    -1.8640     1.6070 hn         1 E59       0.478500
@<TRIPOS>BOND
     1     1     2 1   
     2     1     6 1   
     3     1    23 1   
     4     2     3 1   
     5     2     7 2   
     6     3     4 2   
     7     3    24 1   
     8     4     5 1   
     9     4     8 1   
    10     5     6 2   
    11     6     9 1   
    12     8    25 1   
    13     8    26 1   
    14     8    27 1   
    15     9    10 1   
    16    10    11 1   
    17    10    28 1   
    18    10    29 1   
    19    11    12 2   
    20    11    13 1   
    21    13    14 ar  
    22    13    18 ar  
    23    14    15 ar  
    24    14    30 1   
    25    15    16 ar  
    26    15    31 1   
    27    16    17 ar  
    28    16    19 1   
    29    17    18 ar  
    30    17    32 1   
    31    18    33 1   
    32    19    20 2   
    33    19    21 2   
    34    19    22 1   
    35    22    34 1   
    36    22    35 1   
@<TRIPOS>SUBSTRUCTURE
     1 E59         1 TEMP              0 ****  ****    0 ROOT
