@<TRIPOS>MOLECULE
E59
   35    36     1     0     0
SMALL
abcg2


@<TRIPOS>ATOM
      1 N1           5.1760     0.6810    -0.0130 ns         1 E59      -0.402400
      2 C2           6.2670    -0.1850    -0.0630 c          1 E59       0.566200
      3 C3           5.8780    -1.5650    -0.0980 cc         1 E59      -0.366200
      4 C4           4.5640    -1.9140    -0.0800 cd         1 E59       0.202400
      5 N5           3.5580    -0.9900    -0.0300 nd         1 E59      -0.684300
      6 C6           3.8950     0.2550     0.0000 cc         1 E59       0.513800
      7 O7           7.4040     0.2590    -0.0740 o          1 E59      -0.536000
      8 C8           4.1160    -3.3360    -0.1130 c3         1 E59      -0.050900
      9 S9           2.7040     1.5360     0.0630 ss         1 E59      -0.181200
     10 C10          1.1920     0.5470     0.0390 c3         1 E59      -0.065400
     11 C11          0.0270     1.5030     0.0640 c          1 E59       0.588700
     12 O12          0.2100     2.6970     0.1080 o          1 E59      -0.493100
     13 C13         -1.3450     0.9280     0.0310 ca         1 E59      -0.123600
     14 C14         -1.5670    -0.4450    -0.0170 ca         1 E59      -0.085000
     15 C15         -2.8590    -0.9480    -0.0520 ca         1 E59      -0.023000
     16 C16         -3.9230    -0.0640    -0.0350 ca         1 E59      -0.238500
     17 C17         -3.7250     1.3110     0.0130 ca         1 E59      -0.023000
     18 C18         -2.4350     1.8020     0.0460 ca         1 E59      -0.085000
     19 S19         -5.5860    -0.6870    -0.0960 sy         1 E59       1.126600
     20 O20         -6.3920     0.1910    -0.9300 o          1 E59      -0.539000
     21 O21         -5.5120    -2.1000    -0.4360 o          1 E59      -0.539000
     22 N22         -6.0740    -0.4190     1.4550 n8         1 E59      -1.009100
     23 H1           5.3820     1.6740     0.0100 hn         1 E59       0.341500
     24 H3           6.6550    -2.3150    -0.1360 ha         1 E59       0.215000
     25 H8           3.5370    -3.5670     0.7830 hc         1 E59       0.056033
     26 H8A          3.4620    -3.5060    -0.9690 hc         1 E59       0.056033
     27 H8B          4.9560    -4.0240    -0.1710 hc         1 E59       0.056033
     28 H10          1.1660    -0.0760    -0.8560 h1         1 E59       0.107700
     29 H10A         1.1630    -0.1180     0.9040 h1         1 E59       0.107700
     30 H14         -0.7470    -1.1490    -0.0310 ha         1 E59       0.133000
     31 H15         -3.0170    -2.0170    -0.0940 ha         1 E59       0.143000
     32 H17         -4.5610     1.9970     0.0230 ha         1 E59       0.143000
     33 H18         -2.2750     2.8710     0.0810 ha         1 E59       0.133000
     34 HN22        -7.0850    -0.3560     1.5260 hn         1 E59       0.478500
     35 HN2A        -5.7130    -1.1050     2.1110 hn         1 E59       0.478500
@<TRIPOS>BOND
     1     1     2 1   
     2     1     6 1   
     3     1    23 1   
     4     2     3 1   
     5     2     7 2   
     6     3     4 2   
     7     3    24 1   
     8     4     5 1   
     9     4     8 1   
    10     5     6 2   
    11     6     9 1   
    12     8    25 1   
    13     8    26 1   
    14     8    27 1   
    15     9    10 1   
    16    10    11 1   
    17    10    28 1   
    18    10    29 1   
    19    11    12 2   
    20    11    13 1   
    21    13    14 ar  
    22    13    18 ar  
    23    14    15 ar  
    24    14    30 1   
    25    15    16 ar  
    26    15    31 1   
    27    16    17 ar  
    28    16    19 1   
    29    17    18 ar  
    30    17    32 1   
    31    18    33 1   
    32    19    20 2   
    33    19    21 2   
    34    19    22 1   
    35    22    34 1   
    36    22    35 1   
@<TRIPOS>SUBSTRUCTURE
     1 E59         1 TEMP              0 ****  ****    0 ROOT
