@<TRIPOS>MOLECULE
E5A
   80    82     1     0     0
SMALL
No Charge or Current Charge


@<TRIPOS>ATOM
      1 C2          27.8700     5.4560    15.9550 c3         1 E5A       0.024700
      2 C4          29.1020     5.5260    15.0050 c          1 E5A       0.592100
      3 C12         32.0940     7.8360    16.2850 ca         1 E5A      -0.043300
      4 C15         31.4920     9.3000    18.1460 ca         1 E5A       0.145100
      5 C18         31.2400    10.0800    15.8520 ca         1 E5A      -0.074000
      6 C13         31.9810     8.0760    17.6670 ca         1 E5A      -0.148000
      7 C16         31.1270    10.3120    17.2340 ca         1 E5A      -0.199000
      8 C20         31.7190     8.8450    15.3790 ca         1 E5A      -0.136000
      9 C23         30.5260    10.4340    20.1240 c3         1 E5A       0.168600
     10 C26         29.8020     9.7750    21.3230 c3         1 E5A      -0.085400
     11 C29         28.5150     8.9940    20.9370 c3         1 E5A      -0.072400
     12 C32         28.7400     7.7130    20.0940 c3         1 E5A      -0.072400
     13 C35         27.4340     7.1390    19.4980 c3         1 E5A      -0.157400
     14 C38         27.7130     6.0710    18.4200 c          1 E5A       0.606100
     15 C40         32.1970     4.2400    14.6300 c3         1 E5A       0.164300
     16 C44         31.2800     3.3560    13.7430 c3         1 E5A       0.159800
     17 C49         31.3360     1.3740    12.2030 c3         1 E5A       0.216100
     18 C52         31.0020     2.1800    10.9520 ca         1 E5A      -0.089300
     19 C53         32.0370     2.6920    10.1450 ca         1 E5A      -0.082000
     20 C55         31.7460     3.4490     8.9900 ca         1 E5A      -0.078300
     21 C56         30.3990     3.6860     8.6480 ca         1 E5A      -0.109000
     22 C58         29.3630     3.1770     9.4480 ca         1 E5A      -0.114000
     23 C60         29.6620     2.4270    10.5970 ca         1 E5A      -0.115000
     24 C62         32.8700     4.0140     8.1190 c3         1 E5A      -0.013400
     25 C64         33.7320     5.0310     8.9000 c3         1 E5A      -0.086100
     26 C68         33.7320     2.8890     7.5040 c3         1 E5A      -0.086100
     27 C7          31.6350     5.6630    14.9530 c3         1 E5A       0.077700
     28 C73         26.5220     5.4920    15.1940 c3         1 E5A      -0.095100
     29 C9          32.6410     6.5020    15.7870 c3         1 E5A      -0.050100
     30 N1          27.8810     6.4660    17.0640 n          1 E5A      -0.410800
     31 N47         32.0470     2.1930    13.2050 n7         1 E5A      -0.864400
     32 N5          30.3270     5.6050    15.6370 ns         1 E5A      -0.498900
     33 O22         31.3610     9.4340    19.5120 os         1 E5A      -0.361100
     34 O39         27.7850     4.8930    18.7420 o          1 E5A      -0.609100
     35 O42         33.4530     4.3180    13.9450 oh         1 E5A      -0.642000
     36 O72         29.0080     5.5420    13.7850 o          1 E5A      -0.597100
     37 H1          27.9470     4.4560    16.3980 h1         1 E5A       0.088700
     38 H2          30.9600    10.8590    15.1450 ha         1 E5A       0.114000
     39 H3          32.2610     7.3050    18.3800 ha         1 E5A       0.123000
     40 H4          30.7650    11.2770    17.5750 ha         1 E5A       0.117000
     41 H5          31.8070     8.6780    14.3080 ha         1 E5A       0.123000
     42 H6          31.1410    11.2750    20.4700 h1         1 E5A       0.040700
     43 H7          29.7660    10.8210    19.4350 h1         1 E5A       0.040700
     44 H8          30.4940     9.1200    21.8670 hc         1 E5A       0.056200
     45 H9          29.5160    10.5710    22.0210 hc         1 E5A       0.056200
     46 H10         27.8510     9.6770    20.3910 hc         1 E5A       0.038200
     47 H11         27.9820     8.7180    21.8560 hc         1 E5A       0.038200
     48 H12         29.2350     6.9490    20.7080 hc         1 E5A       0.053200
     49 H13         29.4180     7.9280    19.2670 hc         1 E5A       0.053200
     50 H14         26.8830     7.9740    19.0530 hc         1 E5A       0.064700
     51 H15         26.8420     6.6960    20.3070 hc         1 E5A       0.064700
     52 H16         32.3450     3.7090    15.5800 h1         1 E5A       0.023700
     53 H17         30.9060     3.9750    12.9160 h1         1 E5A       0.052200
     54 H18         30.4120     3.0200    14.3270 h1         1 E5A       0.052200
     55 H19         30.4120     0.9630    12.6350 h1         1 E5A       0.035200
     56 H20         31.9610     0.5200    11.9090 h1         1 E5A       0.035200
     57 H21         33.0700     2.5040    10.4260 ha         1 E5A       0.143000
     58 H22         30.1520     4.2670     7.7630 ha         1 E5A       0.107000
     59 H23         28.3260     3.3660     9.1780 ha         1 E5A       0.109000
     60 H24         28.8530     2.0410    11.2130 ha         1 E5A       0.105000
     61 H25         32.4250     4.5620     7.2780 hc         1 E5A       0.043700
     62 H26         33.1040     5.8320     9.3070 hc         1 E5A       0.035200
     63 H27         34.2580     4.5500     9.7330 hc         1 E5A       0.035200
     64 H28         34.4810     5.4880     8.2420 hc         1 E5A       0.035200
     65 H29         33.1030     2.1910     6.9370 hc         1 E5A       0.035200
     66 H30         34.4790     3.3060     6.8180 hc         1 E5A       0.035200
     67 H31         34.2590     2.3230     8.2810 hc         1 E5A       0.035200
     68 H32         31.4890     6.1860    13.9980 h1         1 E5A       0.096700
     69 H33         25.6850     5.3760    15.8930 hc         1 E5A       0.049367
     70 H34         26.3950     6.4410    14.6600 hc         1 E5A       0.049367
     71 H35         26.4670     4.6750    14.4640 hc         1 E5A       0.049367
     72 H36         27.0170     8.3990    16.8490 h1         1 E5A       0.047700
     73 H37         28.7670     8.4010    17.2320 h1         1 E5A       0.047700
     74 H38         28.2120     7.9870    15.5990 h1         1 E5A       0.047700
     75 H39         32.9770     5.8960    16.6380 hc         1 E5A       0.055700
     76 H40         33.5370     6.6890    15.1830 hc         1 E5A       0.055700
     77 H41         32.2830     1.5760    13.9940 hn         1 E5A       0.408000
     78 H43         30.3080     5.6380    16.6490 hn         1 E5A       0.318500
     79 H44         33.4060     3.5250    13.3540 ho         1 E5A       0.439000
     80 C77         27.9750     7.8960    16.6670 c3         1 E5A       0.080300
@<TRIPOS>BOND
     1     1     2 1   
     2     1    28 1   
     3     1    30 1   
     4     1    37 1   
     5     2    32 1   
     6     2    36 2   
     7     3     6 ar  
     8     3     8 ar  
     9     3    29 1   
    10     4     6 ar  
    11     4     7 ar  
    12     4    33 1   
    13     5     7 ar  
    14     5     8 ar  
    15     5    38 1   
    16     6    39 1   
    17     7    40 1   
    18     8    41 1   
    19     9    10 1   
    20     9    33 1   
    21     9    42 1   
    22     9    43 1   
    23    10    11 1   
    24    10    44 1   
    25    10    45 1   
    26    11    12 1   
    27    11    46 1   
    28    11    47 1   
    29    12    13 1   
    30    12    48 1   
    31    12    49 1   
    32    13    14 1   
    33    13    50 1   
    34    13    51 1   
    35    14    30 1   
    36    14    34 2   
    37    15    16 1   
    38    15    27 1   
    39    15    35 1   
    40    15    52 1   
    41    16    31 1   
    42    16    53 1   
    43    16    54 1   
    44    17    18 1   
    45    17    31 1   
    46    17    55 1   
    47    17    56 1   
    48    18    19 ar  
    49    18    23 ar  
    50    19    20 ar  
    51    19    57 1   
    52    20    21 ar  
    53    20    24 1   
    54    21    22 ar  
    55    21    58 1   
    56    22    23 ar  
    57    22    59 1   
    58    23    60 1   
    59    24    25 1   
    60    24    26 1   
    61    24    61 1   
    62    25    62 1   
    63    25    63 1   
    64    25    64 1   
    65    26    65 1   
    66    26    66 1   
    67    26    67 1   
    68    27    29 1   
    69    27    32 1   
    70    27    68 1   
    71    28    69 1   
    72    28    70 1   
    73    28    71 1   
    74    29    75 1   
    75    29    76 1   
    76    30    80 1   
    77    31    77 1   
    78    32    78 1   
    79    35    79 1   
    80    72    80 1   
    81    73    80 1   
    82    74    80 1   
@<TRIPOS>SUBSTRUCTURE
     1 E5A         1 TEMP              0 ****  ****    0 ROOT
