@<TRIPOS>MOLECULE
E5A
   80    82     1     0     0
SMALL
bcc


@<TRIPOS>ATOM
      1 C2          27.8020     5.3740    16.4510 c3         1 E5A       0.024700
      2 C4          28.7390     5.7200    15.2860 c          1 E5A       0.659100
      3 C12         31.7970     7.8300    15.8320 ca         1 E5A      -0.043300
      4 C15         31.5210     9.2690    17.7640 ca         1 E5A       0.145100
      5 C18         30.9070    10.0500    15.5810 ca         1 E5A      -0.092000
      6 C13         31.8980     8.0500    17.1960 ca         1 E5A      -0.166000
      7 C16         31.0230    10.2800    16.9480 ca         1 E5A      -0.217000
      8 C20         31.2870     8.8440    15.0190 ca         1 E5A      -0.154000
      9 C23         30.9640    10.3360    19.8540 c3         1 E5A       0.145400
     10 C26         30.4900     9.7000    21.1490 c3         1 E5A      -0.085400
     11 C29         29.2090     8.8800    21.0110 c3         1 E5A      -0.072400
     12 C32         29.2540     7.7570    19.9820 c3         1 E5A      -0.072400
     13 C35         27.9130     7.0280    19.8820 c3         1 E5A      -0.157400
     14 C38         27.8910     5.9680    18.8000 c          1 E5A       0.673100
     15 C40         31.6220     4.3560    14.0720 c3         1 E5A       0.141100
     16 C44         30.5760     3.6500    13.2230 c3         1 E5A       0.159800
     17 C49         30.2220     1.6970    11.8270 c3         1 E5A       0.216100
     18 C52         30.6170     2.1980    10.4570 ca         1 E5A      -0.089300
     19 C53         31.8250     2.8490    10.2430 ca         1 E5A      -0.100000
     20 C55         32.1980     3.3020     8.9770 ca         1 E5A      -0.078300
     21 C56         31.3400     3.0730     7.9080 ca         1 E5A      -0.127000
     22 C58         30.1290     2.4160     8.1050 ca         1 E5A      -0.132000
     23 C60         29.7650     1.9900     9.3720 ca         1 E5A      -0.133000
     24 C62         33.4980     4.0500     8.7870 c3         1 E5A      -0.013400
     25 C64         33.4770     5.3770     9.5480 c3         1 E5A      -0.086100
     26 C68         34.7040     3.2030     9.1930 c3         1 E5A      -0.086100
     27 C7          31.1140     5.7180    14.5960 c3         1 E5A       0.077700
     28 C73         26.3650     5.1960    15.9900 c3         1 E5A      -0.095100
     29 C9          32.2460     6.5200    15.2480 c3         1 E5A      -0.050100
     30 N1          27.9090     6.3770    17.5050 n          1 E5A      -0.477800
     31 N47         30.9880     2.2980    12.8950 n7         1 E5A      -0.809200
     32 N5          30.0400     5.5140    15.5460 ns         1 E5A      -0.565900
     33 O22         31.6810     9.3660    19.0980 os         1 E5A      -0.337900
     34 O39         27.8710     4.7790    19.0950 o          1 E5A      -0.609100
     35 O42         32.7760     4.5170    13.2800 oh         1 E5A      -0.579800
     36 O72         28.3170     6.1200    14.2130 o          1 E5A      -0.597100
     37 H1          28.1450     4.4280    16.8710 h1         1 E5A       0.088700
     38 H2          30.5230    10.8410    14.9490 ha         1 E5A       0.132000
     39 H3          32.2840     7.2690    17.8410 ha         1 E5A       0.141000
     40 H4          30.7360    11.2430    17.3480 ha         1 E5A       0.135000
     41 H5          31.2020     8.6950    13.9490 ha         1 E5A       0.141000
     42 H6          31.6220    11.1880    20.0520 h1         1 E5A       0.040700
     43 H7          30.1010    10.7140    19.2970 h1         1 E5A       0.040700
     44 H8          31.2980     9.0970    21.5740 hc         1 E5A       0.056200
     45 H9          30.3070    10.5040    21.8660 hc         1 E5A       0.056200
     46 H10         28.3890     9.5600    20.7530 hc         1 E5A       0.038200
     47 H11         28.9530     8.4630    21.9900 hc         1 E5A       0.038200
     48 H12         30.0400     7.0400    20.2330 hc         1 E5A       0.053200
     49 H13         29.5120     8.1600    19.0040 hc         1 E5A       0.053200
     50 H14         27.1110     7.7540    19.7250 hc         1 E5A       0.064700
     51 H15         27.6930     6.5260    20.8250 hc         1 E5A       0.064700
     52 H16         31.8450     3.7320    14.9530 h1         1 E5A       0.023700
     53 H17         30.4490     4.2150    12.2950 h1         1 E5A       0.052200
     54 H18         29.6040     3.6680    13.7310 h1         1 E5A       0.052200
     55 H19         29.1340     1.8260    11.9450 h1         1 E5A       0.035200
     56 H20         30.3950     0.6170    11.8640 h1         1 E5A       0.035200
     57 H21         32.4710     3.0260    11.0940 ha         1 E5A       0.161000
     58 H22         31.6140     3.4130     6.9160 ha         1 E5A       0.125000
     59 H23         29.4660     2.2470     7.2660 ha         1 E5A       0.127000
     60 H24         28.8130     1.4920     9.5220 ha         1 E5A       0.123000
     61 H25         33.5970     4.2770     7.7210 hc         1 E5A       0.043700
     62 H26         32.6530     6.0100     9.2130 hc         1 E5A       0.035200
     63 H27         33.3580     5.2180    10.6210 hc         1 E5A       0.035200
     64 H28         34.4050     5.9300     9.3910 hc         1 E5A       0.035200
     65 H29         34.7490     2.2780     8.6180 hc         1 E5A       0.035200
     66 H30         35.6330     3.7490     9.0210 hc         1 E5A       0.035200
     67 H31         34.6680     2.9380    10.2510 hc         1 E5A       0.035200
     68 H32         30.7090     6.2910    13.7590 h1         1 E5A       0.096700
     69 H33         25.7530     4.8700    16.8300 hc         1 E5A       0.049367
     70 H34         25.9380     6.1180    15.5960 hc         1 E5A       0.049367
     71 H35         26.2950     4.4360    15.2130 hc         1 E5A       0.049367
     72 H36         27.4730     8.4110    17.8540 h1         1 E5A       0.047700
     73 H37         28.8500     8.1320    16.7840 h1         1 E5A       0.047700
     74 H38         27.1960     7.8610    16.2210 h1         1 E5A       0.047700
     75 H39         32.7190     5.9150    16.0280 hc         1 E5A       0.055700
     76 H40         33.0110     6.7110    14.4930 hc         1 E5A       0.055700
     77 H41         30.9130     1.7170    13.7200 hn         1 E5A       0.352800
     78 H43         30.2960     5.1780    16.4620 hn         1 E5A       0.318500
     79 H44         33.5410     4.6150    13.8540 ho         1 E5A       0.400000
     80 C77         27.8630     7.7630    17.0760 c3         1 E5A       0.080300
@<TRIPOS>BOND
     1     1     2 1   
     2     1    28 1   
     3     1    30 1   
     4     1    37 1   
     5     2    32 1   
     6     2    36 2   
     7     3     6 ar  
     8     3     8 ar  
     9     3    29 1   
    10     4     6 ar  
    11     4     7 ar  
    12     4    33 1   
    13     5     7 ar  
    14     5     8 ar  
    15     5    38 1   
    16     6    39 1   
    17     7    40 1   
    18     8    41 1   
    19     9    10 1   
    20     9    33 1   
    21     9    42 1   
    22     9    43 1   
    23    10    11 1   
    24    10    44 1   
    25    10    45 1   
    26    11    12 1   
    27    11    46 1   
    28    11    47 1   
    29    12    13 1   
    30    12    48 1   
    31    12    49 1   
    32    13    14 1   
    33    13    50 1   
    34    13    51 1   
    35    14    30 1   
    36    14    34 2   
    37    15    16 1   
    38    15    27 1   
    39    15    35 1   
    40    15    52 1   
    41    16    31 1   
    42    16    53 1   
    43    16    54 1   
    44    17    18 1   
    45    17    31 1   
    46    17    55 1   
    47    17    56 1   
    48    18    19 ar  
    49    18    23 ar  
    50    19    20 ar  
    51    19    57 1   
    52    20    21 ar  
    53    20    24 1   
    54    21    22 ar  
    55    21    58 1   
    56    22    23 ar  
    57    22    59 1   
    58    23    60 1   
    59    24    25 1   
    60    24    26 1   
    61    24    61 1   
    62    25    62 1   
    63    25    63 1   
    64    25    64 1   
    65    26    65 1   
    66    26    66 1   
    67    26    67 1   
    68    27    29 1   
    69    27    32 1   
    70    27    68 1   
    71    28    69 1   
    72    28    70 1   
    73    28    71 1   
    74    29    75 1   
    75    29    76 1   
    76    30    80 1   
    77    31    77 1   
    78    32    78 1   
    79    35    79 1   
    80    72    80 1   
    81    73    80 1   
    82    74    80 1   
@<TRIPOS>SUBSTRUCTURE
     1 E5A         1 TEMP              0 ****  ****    0 ROOT
