@<TRIPOS>MOLECULE
E5B
   57    60     1     0     0
SMALL
No Charge or Current Charge


@<TRIPOS>ATOM
      1 C20          1.2680    -2.2510   -13.1400 ca         1 E5B      -0.102000
      2 C28         -1.1090    -2.7120   -13.1000 ca         1 E5B      -0.102000
      3 C21          1.5320    -3.5610   -12.7020 ca         1 E5B      -0.107500
      4 C27         -0.8470    -4.0220   -12.6630 ca         1 E5B      -0.107500
      5 C19         -0.0540    -1.8170   -13.3410 ca         1 E5B      -0.106300
      6 C22          0.4770    -4.4750   -12.4550 ca         1 E5B      -0.065300
      7 C16         -1.4150    -0.6410   -16.0670 cc         1 E5B       0.807900
      8 C4          -3.3090    -0.9020   -16.6150 cd         1 E5B       0.689400
      9 C14         -4.6590    -1.5760   -18.7600 cc         1 E5B      -0.369200
     10 C6          -5.4000    -1.3070   -17.6150 cd         1 E5B       0.168800
     11 C2          -3.1970    -1.5190   -18.8960 c          1 E5B       0.559000
     12 C9          -8.9370    -2.8270   -17.8300 c6         1 E5B       0.128300
     13 C13         -6.9520    -3.7570   -16.7060 c6         1 E5B       0.128300
     14 C10         -9.4600    -4.2770   -18.0480 c6         1 E5B       0.153100
     15 C12         -7.5180    -5.1870   -16.9470 c6         1 E5B       0.153100
     16 C24          2.2280    -6.2680   -11.7920 c3         1 E5B      -0.082100
     17 C25          0.1310    -6.9210   -13.0130 c3         1 E5B      -0.082100
     18 C26          0.0180    -6.1420   -10.6040 c3         1 E5B      -0.082100
     19 C18         -0.3380    -0.3980   -13.8200 c3         1 E5B       0.282100
     20 C7          -6.9180    -1.4060   -17.5470 c3         1 E5B       0.205000
     21 C23          0.7210    -5.9300   -11.9720 c3         1 E5B       0.001300
     22 N15         -2.6600    -0.5690   -15.5450 nc         1 E5B      -0.769000
     23 N29         -1.2460    -0.9680   -17.3300 nd         1 E5B      -0.571800
     24 N3          -2.5710    -1.1550   -17.7120 n          1 E5B      -0.062500
     25 N5          -4.6590    -0.9460   -16.4720 na         1 E5B      -0.769900
     26 N17         -0.3640    -0.3560   -15.2870 nu         1 E5B      -0.916100
     27 N8          -7.4450    -2.7860   -17.7350 n3         1 E5B      -0.722600
     28 O1          -2.5990    -1.7680   -19.9340 o          1 E5B      -0.473000
     29 O11         -8.9650    -5.1530   -17.0060 os         1 E5B      -0.446000
     30 H1           2.0970    -1.5720   -13.3230 ha         1 E5B       0.111000
     31 H2          -2.1380    -2.3950   -13.2540 ha         1 E5B       0.111000
     32 H3           2.5710    -3.8420   -12.5630 ha         1 E5B       0.110500
     33 H4          -1.6900    -4.6850   -12.4880 ha         1 E5B       0.110500
     34 H5          -5.1700    -1.8720   -19.6680 ha         1 E5B       0.239000
     35 H7          -9.3900    -2.4250   -16.9110 h1         1 E5B       0.045450
     36 H8          -7.2460    -3.4280   -15.6980 h1         1 E5B       0.045450
     37 H9          -5.8540    -3.8120   -16.7190 h1         1 E5B       0.045450
     38 H10         -9.1270    -4.6520   -19.0270 h1         1 E5B       0.056200
     39 H11        -10.5590    -4.2850   -18.0340 h1         1 E5B       0.056200
     40 H12         -7.2060    -5.8560   -16.1330 h1         1 E5B       0.056200
     41 H13         -7.1260    -5.5910   -17.8910 h1         1 E5B       0.056200
     42 H14          2.3590    -7.3030   -11.4510 hc         1 E5B       0.034811
     43 H15          2.7730    -6.1630   -12.7380 hc         1 E5B       0.034811
     44 H16          2.6940    -5.6140   -11.0440 hc         1 E5B       0.034811
     45 H17         -0.9530    -6.7980   -13.1200 hc         1 E5B       0.034811
     46 H18          0.5880    -6.7630   -13.9980 hc         1 E5B       0.034811
     47 H19          0.3180    -7.9600   -12.7160 hc         1 E5B       0.034811
     48 H20         -1.0680    -6.0100   -10.6820 hc         1 E5B       0.034811
     49 H21          0.2000    -7.1530   -10.2210 hc         1 E5B       0.034811
     50 H22          0.3920    -5.4260    -9.8620 hc         1 E5B       0.034811
     51 H23          0.4440     0.2750   -13.4410 h1         1 E5B       0.061200
     52 H24         -1.2900    -0.0490   -13.3940 h1         1 E5B       0.061200
     53 H25         -7.3250    -0.7470   -18.3250 h1         1 E5B       0.052200
     54 H26         -7.2580    -1.0030   -16.5830 h1         1 E5B       0.052200
     55 H27         -5.0660    -0.7290   -15.5710 hn         1 E5B       0.532000
     56 H28          0.5030    -0.5570   -15.7720 hn         1 E5B       0.499000
     57 H6          -9.2850    -2.1970   -18.6620 h1         1 E5B       0.045450
@<TRIPOS>BOND
     1     1     3 ar  
     2     1     5 ar  
     3     1    30 1   
     4     2     4 ar  
     5     2     5 ar  
     6     2    31 1   
     7     3     6 ar  
     8     3    32 1   
     9     4     6 ar  
    10     4    33 1   
    11     5    19 1   
    12     6    21 1   
    13     7    22 1   
    14     7    23 2   
    15     7    26 1   
    16     8    22 2   
    17     8    24 1   
    18     8    25 1   
    19     9    10 2   
    20     9    11 1   
    21     9    34 1   
    22    10    20 1   
    23    10    25 1   
    24    11    24 1   
    25    11    28 2   
    26    12    14 1   
    27    12    27 1   
    28    12    35 1   
    29    12    57 1   
    30    13    15 1   
    31    13    27 1   
    32    13    36 1   
    33    13    37 1   
    34    14    29 1   
    35    14    38 1   
    36    14    39 1   
    37    15    29 1   
    38    15    40 1   
    39    15    41 1   
    40    16    21 1   
    41    16    42 1   
    42    16    43 1   
    43    16    44 1   
    44    17    21 1   
    45    17    45 1   
    46    17    46 1   
    47    17    47 1   
    48    18    21 1   
    49    18    48 1   
    50    18    49 1   
    51    18    50 1   
    52    19    26 1   
    53    19    51 1   
    54    19    52 1   
    55    20    27 1   
    56    20    53 1   
    57    20    54 1   
    58    23    24 1   
    59    25    55 1   
    60    26    56 1   
@<TRIPOS>SUBSTRUCTURE
     1 E5B         1 TEMP              0 ****  ****    0 ROOT
