@<TRIPOS>MOLECULE
E5B
   57    60     1     0     0
SMALL
abcg2


@<TRIPOS>ATOM
      1 C20          0.4950    -2.6080   -14.0490 ca         1 E5B      -0.102000
      2 C28         -0.2320    -1.8180   -11.9250 ca         1 E5B      -0.102000
      3 C21          0.6390    -3.8860   -13.5180 ca         1 E5B      -0.107500
      4 C27         -0.0790    -3.0890   -11.3980 ca         1 E5B      -0.107500
      5 C19          0.0540    -1.5550   -13.2620 ca         1 E5B      -0.106300
      6 C22          0.3570    -4.1600   -12.1840 ca         1 E5B      -0.065300
      7 C16         -1.4030    -0.5380   -15.8140 cc         1 E5B       0.807900
      8 C4          -3.3290    -1.2790   -16.0170 cd         1 E5B       0.689400
      9 C14         -4.7510    -1.9620   -18.2400 cc         1 E5B      -0.369200
     10 C6          -5.2980    -2.0900   -17.0070 cd         1 E5B       0.168800
     11 C2          -3.4090    -1.4780   -18.4480 c          1 E5B       0.559000
     12 C9          -8.7340    -3.1510   -17.9040 c6         1 E5B       0.128300
     13 C13         -6.8440    -4.5990   -18.0020 c6         1 E5B       0.128300
     14 C10         -9.2530    -3.7950   -19.1760 c6         1 E5B       0.153100
     15 C12         -7.4150    -5.2100   -19.2670 c6         1 E5B       0.153100
     16 C24          0.9700    -6.5850   -12.5890 c3         1 E5B      -0.082100
     17 C25         -0.8530    -6.0040   -11.0100 c3         1 E5B      -0.082100
     18 C26          1.5290    -5.4920   -10.4320 c3         1 E5B      -0.082100
     19 C18         -0.0920    -0.1480   -13.7990 c3         1 E5B       0.282100
     20 C7          -6.7070    -2.5470   -16.7530 c3         1 E5B       0.205000
     21 C23          0.5010    -5.5470   -11.5690 c3         1 E5B       0.001300
     22 N15         -2.4970    -0.8980   -15.0860 nc         1 E5B      -0.769000
     23 N29         -1.5150    -0.6770   -17.1200 nd         1 E5B      -0.571800
     24 N3          -2.7790    -1.1580   -17.2450 n          1 E5B      -0.062500
     25 N5          -4.5840    -1.7540   -15.8970 na         1 E5B      -0.769900
     26 N17         -0.2940    -0.0450   -15.2210 nu         1 E5B      -0.916100
     27 N8          -7.2830    -3.2180   -17.8850 n3         1 E5B      -0.722600
     28 O1          -2.8390    -1.3380   -19.5110 o          1 E5B      -0.473000
     29 O11         -8.8220    -5.1320   -19.2940 os         1 E5B      -0.446000
     30 H1           0.7260    -2.4490   -15.0950 ha         1 E5B       0.111000
     31 H2          -0.5850    -1.0170   -11.2840 ha         1 E5B       0.111000
     32 H3           0.9800    -4.6730   -14.1780 ha         1 E5B       0.110500
     33 H4          -0.3160    -3.2440   -10.3510 ha         1 E5B       0.110500
     34 H5          -5.3380    -2.2290   -19.1060 ha         1 E5B       0.239000
     35 H7          -9.1810    -3.6500   -17.0290 h1         1 E5B       0.045450
     36 H8          -7.1540    -5.1920   -17.1260 h1         1 E5B       0.045450
     37 H9          -5.7540    -4.6410   -18.0530 h1         1 E5B       0.045450
     38 H10         -8.9190    -3.2050   -20.0410 h1         1 E5B       0.056200
     39 H11        -10.3440    -3.8010   -19.1730 h1         1 E5B       0.056200
     40 H12         -7.1440    -6.2660   -19.3280 h1         1 E5B       0.056200
     41 H13         -6.9840    -4.6990   -20.1400 h1         1 E5B       0.056200
     42 H14          1.0620    -7.5590   -12.1050 hc         1 E5B       0.034811
     43 H15          0.2620    -6.6950   -13.4130 hc         1 E5B       0.034811
     44 H16          1.9450    -6.3350   -13.0110 hc         1 E5B       0.034811
     45 H17         -1.2300    -5.3320   -10.2390 hc         1 E5B       0.034811
     46 H18         -1.6050    -6.0630   -11.7990 hc         1 E5B       0.034811
     47 H19         -0.7610    -6.9960   -10.5630 hc         1 E5B       0.034811
     48 H20          1.2330    -4.7980    -9.6440 hc         1 E5B       0.034811
     49 H21          1.6420    -6.4770    -9.9740 hc         1 E5B       0.034811
     50 H22          2.5070    -5.1810   -10.8020 hc         1 E5B       0.034811
     51 H23          0.8080     0.4250   -13.5680 h1         1 E5B       0.061200
     52 H24         -0.9090     0.3530   -13.2750 h1         1 E5B       0.061200
     53 H25         -7.2960    -1.6510   -16.5290 h1         1 E5B       0.052200
     54 H26         -6.7270    -3.1560   -15.8340 h1         1 E5B       0.052200
     55 H27         -4.9760    -1.8620   -14.9710 hn         1 E5B       0.532000
     56 H28          0.5190     0.0520   -15.8060 hn         1 E5B       0.499000
     57 H6          -9.0510    -2.1050   -17.8810 h1         1 E5B       0.045450
@<TRIPOS>BOND
     1     1     3 ar  
     2     1     5 ar  
     3     1    30 1   
     4     2     4 ar  
     5     2     5 ar  
     6     2    31 1   
     7     3     6 ar  
     8     3    32 1   
     9     4     6 ar  
    10     4    33 1   
    11     5    19 1   
    12     6    21 1   
    13     7    22 1   
    14     7    23 2   
    15     7    26 1   
    16     8    22 2   
    17     8    24 1   
    18     8    25 1   
    19     9    10 2   
    20     9    11 1   
    21     9    34 1   
    22    10    20 1   
    23    10    25 1   
    24    11    24 1   
    25    11    28 2   
    26    12    14 1   
    27    12    27 1   
    28    12    35 1   
    29    12    57 1   
    30    13    15 1   
    31    13    27 1   
    32    13    36 1   
    33    13    37 1   
    34    14    29 1   
    35    14    38 1   
    36    14    39 1   
    37    15    29 1   
    38    15    40 1   
    39    15    41 1   
    40    16    21 1   
    41    16    42 1   
    42    16    43 1   
    43    16    44 1   
    44    17    21 1   
    45    17    45 1   
    46    17    46 1   
    47    17    47 1   
    48    18    21 1   
    49    18    48 1   
    50    18    49 1   
    51    18    50 1   
    52    19    26 1   
    53    19    51 1   
    54    19    52 1   
    55    20    27 1   
    56    20    53 1   
    57    20    54 1   
    58    23    24 1   
    59    25    55 1   
    60    26    56 1   
@<TRIPOS>SUBSTRUCTURE
     1 E5B         1 TEMP              0 ****  ****    0 ROOT
