@<TRIPOS>MOLECULE
E5C
   45    47     1     0     0
SMALL
abcg2


@<TRIPOS>ATOM
      1 N           -5.5990   -24.2630   -48.3190 n3         1 E5C      -0.757600
      2 C           -7.0270   -28.4290   -43.5150 ca         1 E5C       0.274100
      3 O           -6.0680   -29.3410   -43.3970 oh         1 E5C      -0.537100
      4 C1          -7.9930   -28.3590   -42.5170 ca         1 E5C      -0.287000
      5 C10         -3.6890   -24.5510   -49.7930 c6         1 E5C      -0.077400
      6 C11         -2.9290   -23.4920   -49.0060 c6         1 E5C      -0.072400
      7 C12         -3.8820   -22.5070   -48.3350 c6         1 E5C      -0.063700
      8 C13         -3.1160   -21.4910   -47.4910 c3         1 E5C      -0.073400
      9 C14         -3.9700   -20.3610   -46.9290 c3         1 E5C      -0.088100
     10 C15         -7.0900   -27.5420   -44.6100 ca         1 E5C      -0.357600
     11 C16         -6.0840   -27.6140   -45.6570 c          1 E5C       0.703700
     12 C2          -9.0230   -27.4330   -42.6160 ca         1 E5C       0.222100
     13 C3          -9.1090   -26.5660   -43.7140 ca         1 E5C      -0.202000
     14 C4          -8.1510   -26.6270   -44.6990 ca         1 E5C       0.040700
     15 C5          -8.2130   -25.7600   -45.9190 c6         1 E5C      -0.076100
     16 C6          -6.8170   -25.4680   -46.4300 c6         1 E5C       0.148300
     17 C7          -6.8410   -24.7460   -47.7730 c3         1 E5C       0.202800
     18 C8          -4.9130   -23.2770   -47.5110 c6         1 E5C       0.189800
     19 C9          -4.7050   -25.2450   -48.8990 c6         1 E5C       0.190800
     20 O2          -6.0840   -26.6960   -46.6080 os         1 E5C      -0.429100
     21 O3          -5.2370   -28.4950   -45.7110 o          1 E5C      -0.558000
     22 H2          -5.5100   -29.2950   -44.2050 ho         1 E5C       0.520000
     23 H3          -7.9360   -29.0380   -41.6730 ha         1 E5C       0.136000
     24 H4          -3.0000   -25.2910   -50.2080 hc         1 E5C       0.046200
     25 H5          -4.2080   -24.0860   -50.6360 hc         1 E5C       0.046200
     26 H6          -2.3210   -23.9810   -48.2350 hc         1 E5C       0.038700
     27 H7          -2.2320   -22.9560   -49.6560 hc         1 E5C       0.038700
     28 H8          -4.4250   -21.9660   -49.1210 hc         1 E5C       0.057700
     29 H9          -2.6090   -22.0140   -46.6730 hc         1 E5C       0.039200
     30 H10         -2.3220   -21.0620   -48.1110 hc         1 E5C       0.039200
     31 H11         -3.3540   -19.6250   -46.4110 hc         1 E5C       0.031367
     32 H12         -4.5050   -19.8400   -47.7250 hc         1 E5C       0.031367
     33 H13         -4.7110   -20.7210   -46.2150 hc         1 E5C       0.031367
     34 H14         -9.9270   -25.8590   -43.7800 ha         1 E5C       0.135000
     35 H15         -8.7200   -24.8200   -45.6980 hc         1 E5C       0.073200
     36 H16         -8.7970   -26.2640   -46.6970 hc         1 E5C       0.073200
     37 H17         -6.2790   -24.8700   -45.6860 h1         1 E5C       0.059700
     38 H18         -7.5110   -23.8890   -47.6440 h1         1 E5C       0.059700
     39 H19         -7.3190   -25.4000   -48.5100 h1         1 E5C       0.059700
     40 H20         -5.6590   -22.5910   -47.1020 h1         1 E5C       0.027200
     41 H21         -4.3930   -23.7290   -46.6450 h1         1 E5C       0.027200
     42 H22         -5.2950   -25.9580   -49.4800 h1         1 E5C       0.040700
     43 H23         -4.1600   -25.8280   -48.1390 h1         1 E5C       0.040700
     44 H24         -9.8360   -27.9630   -40.9730 ho         1 E5C       0.476000
     45 O1          -9.9750   -27.3260   -41.6850 oh         1 E5C      -0.523100
@<TRIPOS>BOND
     1     1    17 1   
     2     1    18 1   
     3     1    19 1   
     4     2     3 1   
     5     2     4 ar  
     6     2    10 ar  
     7     3    22 1   
     8     4    12 ar  
     9     4    23 1   
    10     5     6 1   
    11     5    19 1   
    12     5    24 1   
    13     5    25 1   
    14     6     7 1   
    15     6    26 1   
    16     6    27 1   
    17     7     8 1   
    18     7    18 1   
    19     7    28 1   
    20     8     9 1   
    21     8    29 1   
    22     8    30 1   
    23     9    31 1   
    24     9    32 1   
    25     9    33 1   
    26    10    11 1   
    27    10    14 ar  
    28    11    20 1   
    29    11    21 2   
    30    12    13 ar  
    31    12    45 1   
    32    13    14 ar  
    33    13    34 1   
    34    14    15 1   
    35    15    16 1   
    36    15    35 1   
    37    15    36 1   
    38    16    17 1   
    39    16    20 1   
    40    16    37 1   
    41    17    38 1   
    42    17    39 1   
    43    18    40 1   
    44    18    41 1   
    45    19    42 1   
    46    19    43 1   
    47    44    45 1   
@<TRIPOS>SUBSTRUCTURE
     1 E5C         1 TEMP              0 ****  ****    0 ROOT
