@<TRIPOS>MOLECULE
E5C
   45    47     1     0     0
SMALL
No Charge or Current Charge


@<TRIPOS>ATOM
      1 N           -5.6800   -24.2030   -48.4680 n3         1 E5C      -0.757600
      2 C           -7.0340   -28.4930   -43.5530 ca         1 E5C       0.274100
      3 O           -6.1030   -29.4780   -43.4930 oh         1 E5C      -0.537100
      4 C1          -7.8960   -28.3270   -42.4630 ca         1 E5C      -0.287000
      5 C10         -3.5280   -24.6050   -49.6810 c6         1 E5C      -0.077400
      6 C11         -2.8230   -23.5360   -48.8140 c6         1 E5C      -0.072400
      7 C12         -3.8420   -22.4790   -48.3110 c6         1 E5C      -0.063700
      8 C13         -3.1430   -21.4170   -47.4090 c3         1 E5C      -0.073400
      9 C14         -4.0350   -20.2380   -46.9650 c3         1 E5C      -0.088100
     10 C15         -7.1380   -27.6590   -44.6830 ca         1 E5C      -0.357600
     11 C16         -6.2300   -27.8360   -45.8740 c          1 E5C       0.703700
     12 C2          -8.8800   -27.3350   -42.4950 ca         1 E5C       0.222100
     13 C3          -9.0040   -26.5070   -43.6150 ca         1 E5C      -0.202000
     14 C4          -8.1360   -26.6650   -44.7080 ca         1 E5C       0.040700
     15 C5          -8.2620   -25.7710   -45.9280 c6         1 E5C      -0.076100
     16 C6          -6.8770   -25.5640   -46.5650 c6         1 E5C       0.148300
     17 C7          -6.9530   -24.7540   -47.9070 c3         1 E5C       0.202800
     18 C8          -5.0340   -23.1810   -47.5970 c6         1 E5C       0.189800
     19 C9          -4.7110   -25.2420   -48.9160 c6         1 E5C       0.190800
     20 O2          -6.2510   -26.8410   -46.8170 os         1 E5C      -0.429100
     21 O3          -5.5200   -28.8240   -46.0020 o          1 E5C      -0.558000
     22 H2          -5.6670   -29.4960   -44.3800 ho         1 E5C       0.520000
     23 H3          -7.7950   -28.9790   -41.6000 ha         1 E5C       0.136000
     24 H4          -2.8110   -25.3840   -49.9730 hc         1 E5C       0.046200
     25 H5          -3.8950   -24.1490   -50.6110 hc         1 E5C       0.046200
     26 H6          -2.3340   -24.0220   -47.9580 hc         1 E5C       0.038700
     27 H7          -2.0280   -23.0510   -49.3980 hc         1 E5C       0.038700
     28 H8          -4.2370   -21.9380   -49.1830 hc         1 E5C       0.057700
     29 H9          -2.7350   -21.9010   -46.5120 hc         1 E5C       0.039200
     30 H10         -2.2820   -20.9990   -47.9450 hc         1 E5C       0.039200
     31 H11         -3.4400   -19.5000   -46.4140 hc         1 E5C       0.031367
     32 H12         -4.4800   -19.7390   -47.8340 hc         1 E5C       0.031367
     33 H13         -4.8420   -20.5790   -46.3060 hc         1 E5C       0.031367
     34 H14         -9.7750   -25.7420   -43.6340 ha         1 E5C       0.135000
     35 H15         -8.6920   -24.7990   -45.6480 hc         1 E5C       0.073200
     36 H16         -8.9500   -26.2280   -46.6520 hc         1 E5C       0.073200
     37 H17         -6.2550   -25.0100   -45.8480 h1         1 E5C       0.059700
     38 H18         -7.6450   -23.9180   -47.7380 h1         1 E5C       0.059700
     39 H19         -7.4360   -25.3980   -48.6540 h1         1 E5C       0.059700
     40 H20         -5.7770   -22.4230   -47.3090 h1         1 E5C       0.027200
     41 H21         -4.6680   -23.6460   -46.6690 h1         1 E5C       0.027200
     42 H22         -5.2060   -25.9730   -49.5720 h1         1 E5C       0.040700
     43 H23         -4.3100   -25.7950   -48.0540 h1         1 E5C       0.040700
     44 H24         -9.4840   -27.8380   -40.7590 ho         1 E5C       0.476000
     45 O1          -9.7220   -27.1740   -41.4400 oh         1 E5C      -0.523100
@<TRIPOS>BOND
     1     1    17 1   
     2     1    18 1   
     3     1    19 1   
     4     2     3 1   
     5     2     4 ar  
     6     2    10 ar  
     7     3    22 1   
     8     4    12 ar  
     9     4    23 1   
    10     5     6 1   
    11     5    19 1   
    12     5    24 1   
    13     5    25 1   
    14     6     7 1   
    15     6    26 1   
    16     6    27 1   
    17     7     8 1   
    18     7    18 1   
    19     7    28 1   
    20     8     9 1   
    21     8    29 1   
    22     8    30 1   
    23     9    31 1   
    24     9    32 1   
    25     9    33 1   
    26    10    11 1   
    27    10    14 ar  
    28    11    20 1   
    29    11    21 2   
    30    12    13 ar  
    31    12    45 1   
    32    13    14 ar  
    33    13    34 1   
    34    14    15 1   
    35    15    16 1   
    36    15    35 1   
    37    15    36 1   
    38    16    17 1   
    39    16    20 1   
    40    16    37 1   
    41    17    38 1   
    42    17    39 1   
    43    18    40 1   
    44    18    41 1   
    45    19    42 1   
    46    19    43 1   
    47    44    45 1   
@<TRIPOS>SUBSTRUCTURE
     1 E5C         1 TEMP              0 ****  ****    0 ROOT
