@<TRIPOS>MOLECULE
E5D
   82    84     1     0     0
SMALL
No Charge or Current Charge


@<TRIPOS>ATOM
      1 C1          29.6970     7.0070    21.4970 c3         1 E5D      -0.109100
      2 C2          28.5540     7.9360    21.0530 c3         1 E5D       0.100000
      3 C4          28.5700     8.9040    18.7360 c3         1 E5D       0.104000
      4 C5          30.0910     9.1150    18.5700 c3         1 E5D      -0.097400
      5 C6          30.4340    10.1900    17.5090 c3         1 E5D      -0.076400
      6 C8          32.6580     9.0140    16.7240 c3         1 E5D      -0.072400
      7 C10         31.9210     8.9970    14.2510 c3         1 E5D      -0.089100
      8 C11         32.5870     6.7980    15.4170 c3         1 E5D      -0.093400
      9 C12         31.7060     5.7750    14.6430 c3         1 E5D       0.073700
     10 N13         30.4050     5.6620    15.3240 ns         1 E5D      -0.506900
     11 C18         26.9960     6.4820    17.8100 ca         1 E5D      -0.149600
     12 C14         29.1730     5.7230    14.7100 c          1 E5D       0.615700
     13 C16         27.9810     5.8950    15.6270 ca         1 E5D      -0.162600
     14 C17         28.1260     6.2970    16.9780 ca         1 E5D      -0.068000
     15 C19         25.7150     6.2130    17.2890 ca         1 E5D      -0.047000
     16 C20         25.5600     5.8230    15.9500 ca         1 E5D      -0.126000
     17 C21         26.6830     5.6760    15.1200 ca         1 E5D      -0.043000
     18 C22         27.1350     6.9080    19.2580 c          1 E5D       0.612700
     19 C24         32.3870     4.3830    14.4770 c3         1 E5D       0.170300
     20 C26         31.5120     3.3400    13.7290 c3         1 E5D       0.158800
     21 C28         31.6740     1.2380    12.3650 c3         1 E5D       0.216100
     22 C29         31.2140     1.8980    11.0690 ca         1 E5D      -0.089300
     23 C30         32.1580     2.4610    10.1880 ca         1 E5D      -0.083000
     24 C31         31.7480     3.0860     8.9910 ca         1 E5D      -0.078300
     25 C32         30.3750     3.1380     8.6820 ca         1 E5D      -0.109000
     26 C33         29.4280     2.5780     9.5550 ca         1 E5D      -0.113000
     27 C34         29.8450     1.9600    10.7460 ca         1 E5D      -0.116000
     28 C35         32.7740     3.7080     8.0410 c3         1 E5D      -0.013400
     29 C36         33.5300     4.8760     8.7120 c3         1 E5D      -0.086100
     30 C37         33.7460     2.6450     7.4810 c3         1 E5D      -0.086100
     31 C7          31.9450    10.3220    17.1730 c3         1 E5D      -0.069400
     32 C9          31.9580     8.2150    15.5870 c3         1 E5D      -0.059700
     33 N27         32.3530     2.2010    13.2560 n7         1 E5D      -0.864400
     34 N3          28.2130     7.7610    19.6180 n          1 E5D      -0.408800
     35 O23         26.3840     6.4410    20.1060 o          1 E5D      -0.596100
     36 O25         33.6110     4.4840    13.7410 oh         1 E5D      -0.642000
     37 H1          29.9310     7.1710    22.5560 hc         1 E5D       0.042367
     38 H2          29.4120     5.9570    21.3640 hc         1 E5D       0.042367
     39 H3          30.6030     7.1980    20.9100 hc         1 E5D       0.042367
     40 H4          28.8590     8.9760    21.2330 h1         1 E5D       0.052200
     41 H5          27.6750     7.7550    21.6840 h1         1 E5D       0.052200
     42 H6          28.1320     9.8190    19.1570 h1         1 E5D       0.051700
     43 H7          28.1180     8.7750    17.7450 h1         1 E5D       0.051700
     44 H8          30.5370     8.1550    18.2880 hc         1 E5D       0.044700
     45 H9          30.5360     9.4010    19.5310 hc         1 E5D       0.044700
     46 H10         30.0710    11.1620    17.8640 hc         1 E5D       0.042200
     47 H11         29.8790     9.9820    16.5870 hc         1 E5D       0.042200
     48 H12         32.7640     8.3680    17.6040 hc         1 E5D       0.036700
     49 H13         33.6810     9.2600    16.4120 hc         1 E5D       0.036700
     50 H14         31.4160     9.9620    14.3720 hc         1 E5D       0.038033
     51 H15         32.9370     9.1860    13.8820 hc         1 E5D       0.038033
     52 H16         31.3750     8.4390    13.4820 hc         1 E5D       0.038033
     53 H17         32.7950     6.3760    16.4080 hc         1 E5D       0.043700
     54 H18         33.5600     6.9020    14.9200 hc         1 E5D       0.043700
     55 H19         31.5380     6.1720    13.6330 h1         1 E5D       0.098700
     56 H20         30.4010     5.6680    16.3350 hn         1 E5D       0.310500
     57 H21         29.1130     6.4710    17.3960 ha         1 E5D       0.116000
     58 H22         24.8330     6.3270    17.9180 ha         1 E5D       0.131000
     59 H23         24.5650     5.6350    15.5520 ha         1 E5D       0.123000
     60 H24         26.5410     5.3750    14.0840 ha         1 E5D       0.136000
     61 H25         32.6020     3.9810    15.4770 h1         1 E5D       0.022700
     62 H26         31.0390     3.8450    12.8750 h1         1 E5D       0.053200
     63 H27         30.7070     2.9920    14.3910 h1         1 E5D       0.053200
     64 H28         30.8100     0.7910    12.8780 h1         1 E5D       0.035200
     65 H29         32.3580     0.4170    12.1120 h1         1 E5D       0.035200
     66 H30         33.2140     2.4160    10.4450 ha         1 E5D       0.144000
     67 H31         30.0370     3.6160     7.7650 ha         1 E5D       0.107000
     68 H32         28.3690     2.6240     9.3100 ha         1 E5D       0.109000
     69 H33         29.1030     1.5340    11.4170 ha         1 E5D       0.105000
     70 H34         32.2450     4.1320     7.1780 hc         1 E5D       0.043700
     71 H35         32.8220     5.6290     9.0810 hc         1 E5D       0.035367
     72 H36         34.1310     4.5260     9.5590 hc         1 E5D       0.035367
     73 H37         34.2020     5.3640     7.9960 hc         1 E5D       0.035367
     74 H38         33.1900     1.8370     6.9910 hc         1 E5D       0.035367
     75 H39         34.4200     3.0910     6.7400 hc         1 E5D       0.035367
     76 H40         34.3580     2.2070     8.2790 hc         1 E5D       0.035367
     77 H41         32.4680    10.7130    18.0550 hc         1 E5D       0.041700
     78 H42         32.0640    11.0820    16.3920 hc         1 E5D       0.041700
     79 H43         30.9180     8.0720    15.8960 hc         1 E5D       0.047700
     80 H44         32.6760     1.6800    14.0820 hn         1 E5D       0.408000
     81 H46         33.6030     3.6370    13.2290 ho         1 E5D       0.439000
     82 O15         29.0600     5.6730    13.4930 o          1 E5D      -0.594100
@<TRIPOS>BOND
     1     1     2 1   
     2     1    37 1   
     3     1    38 1   
     4     1    39 1   
     5     2    34 1   
     6     2    40 1   
     7     2    41 1   
     8     3     4 1   
     9     3    34 1   
    10     3    42 1   
    11     3    43 1   
    12     4     5 1   
    13     4    44 1   
    14     4    45 1   
    15     5    31 1   
    16     5    46 1   
    17     5    47 1   
    18     6    31 1   
    19     6    32 1   
    20     6    48 1   
    21     6    49 1   
    22     7    32 1   
    23     7    50 1   
    24     7    51 1   
    25     7    52 1   
    26     8     9 1   
    27     8    32 1   
    28     8    53 1   
    29     8    54 1   
    30     9    10 1   
    31     9    19 1   
    32     9    55 1   
    33    10    12 1   
    34    10    56 1   
    35    11    14 ar  
    36    11    15 ar  
    37    11    18 1   
    38    12    13 1   
    39    12    82 2   
    40    13    14 ar  
    41    13    17 ar  
    42    14    57 1   
    43    15    16 ar  
    44    15    58 1   
    45    16    17 ar  
    46    16    59 1   
    47    17    60 1   
    48    18    34 1   
    49    18    35 2   
    50    19    20 1   
    51    19    36 1   
    52    19    61 1   
    53    20    33 1   
    54    20    62 1   
    55    20    63 1   
    56    21    22 1   
    57    21    33 1   
    58    21    64 1   
    59    21    65 1   
    60    22    23 ar  
    61    22    27 ar  
    62    23    24 ar  
    63    23    66 1   
    64    24    25 ar  
    65    24    28 1   
    66    25    26 ar  
    67    25    67 1   
    68    26    27 ar  
    69    26    68 1   
    70    27    69 1   
    71    28    29 1   
    72    28    30 1   
    73    28    70 1   
    74    29    71 1   
    75    29    72 1   
    76    29    73 1   
    77    30    74 1   
    78    30    75 1   
    79    30    76 1   
    80    31    77 1   
    81    31    78 1   
    82    32    79 1   
    83    33    80 1   
    84    36    81 1   
@<TRIPOS>SUBSTRUCTURE
     1 E5D         1 TEMP              0 ****  ****    0 ROOT
