@<TRIPOS>MOLECULE
E5D
   82    84     1     0     0
SMALL
abcg2


@<TRIPOS>ATOM
      1 C1          30.4370     7.0780    21.5870 c3         1 E5D      -0.109100
      2 C2          29.2600     8.0070    21.3310 c3         1 E5D       0.100000
      3 C4          28.9330     8.9180    19.0460 c3         1 E5D       0.104000
      4 C5          30.3660     8.9630    18.5260 c3         1 E5D      -0.097400
      5 C6          30.5250     9.9970    17.4170 c3         1 E5D      -0.076400
      6 C8          32.4730     8.7550    16.2820 c3         1 E5D      -0.072400
      7 C10         31.3850     8.9410    14.0070 c3         1 E5D      -0.089100
      8 C11         32.0920     6.6840    14.9040 c3         1 E5D      -0.093400
      9 C12         31.0590     5.7770    14.2260 c3         1 E5D       0.073700
     10 N13         29.9290     5.6070    15.1220 ns         1 E5D      -0.506900
     11 C18         27.3610     6.5430    18.3970 ca         1 E5D      -0.149600
     12 C14         28.6800     6.0350    14.8710 c          1 E5D       0.615700
     13 C16         27.7620     6.0930    16.0540 ca         1 E5D      -0.162600
     14 C17         28.2350     6.3980    17.3260 ca         1 E5D      -0.068000
     15 C19         26.0010     6.3380    18.1970 ca         1 E5D      -0.047000
     16 C20         25.5210     6.0460    16.9280 ca         1 E5D      -0.126000
     17 C21         26.3930     5.9370    15.8570 ca         1 E5D      -0.043000
     18 C22         27.8600     6.8010    19.7870 c          1 E5D       0.612700
     19 C24         31.6380     4.4010    13.8460 c3         1 E5D       0.170300
     20 C26         30.6400     3.5770    13.0460 c3         1 E5D       0.158800
     21 C28         30.3790     1.4710    11.8650 c3         1 E5D       0.216100
     22 C29         30.8000     1.8250    10.4560 ca         1 E5D      -0.089300
     23 C30         31.9700     2.5300    10.2030 ca         1 E5D      -0.083000
     24 C31         32.3640     2.8500     8.9030 ca         1 E5D      -0.078300
     25 C32         31.5700     2.4270     7.8430 ca         1 E5D      -0.109000
     26 C33         30.3990     1.7140     8.0810 ca         1 E5D      -0.113000
     27 C34         30.0120     1.4220     9.3790 ca         1 E5D      -0.116000
     28 C35         33.6080     3.6750     8.6660 c3         1 E5D      -0.013400
     29 C36         33.4120     5.1000     9.1870 c3         1 E5D      -0.086100
     30 C37         34.8500     3.0340     9.2830 c3         1 E5D      -0.086100
     31 C7          31.9390    10.0740    16.8410 c3         1 E5D      -0.069400
     32 C9          31.5640     8.0790    15.2530 c3         1 E5D      -0.059700
     33 N27         31.0980     2.2110    12.8780 n7         1 E5D      -0.864400
     34 N3          28.6800     7.8480    20.0000 n          1 E5D      -0.408800
     35 O23         27.5140     6.0410    20.6840 o          1 E5D      -0.596100
     36 O25         32.8010     4.5420    13.0620 oh         1 E5D      -0.642000
     37 H1          30.8490     7.2660    22.5790 hc         1 E5D       0.042367
     38 H2          30.1350     6.0320    21.5440 hc         1 E5D       0.042367
     39 H3          31.2320     7.2340    20.8590 hc         1 E5D       0.042367
     40 H4          29.5800     9.0450    21.4230 h1         1 E5D       0.052200
     41 H5          28.4870     7.8510    22.0850 h1         1 E5D       0.052200
     42 H6          28.6940     9.8670    19.5340 h1         1 E5D       0.051700
     43 H7          28.2380     8.8300    18.2120 h1         1 E5D       0.051700
     44 H8          30.6510     7.9720    18.1630 hc         1 E5D       0.044700
     45 H9          31.0590     9.1920    19.3420 hc         1 E5D       0.044700
     46 H10         30.2490    10.9840    17.8010 hc         1 E5D       0.042200
     47 H11         29.8060     9.7810    16.6190 hc         1 E5D       0.042200
     48 H12         32.6440     8.0570    17.1080 hc         1 E5D       0.036700
     49 H13         33.4570     8.9310    15.8340 hc         1 E5D       0.036700
     50 H14         30.9220     9.9000    14.2460 hc         1 E5D       0.038033
     51 H15         32.3500     9.1480    13.5380 hc         1 E5D       0.038033
     52 H16         30.7500     8.4560    13.2640 hc         1 E5D       0.038033
     53 H17         32.4360     6.1860    15.8200 hc         1 E5D       0.043700
     54 H18         32.9680     6.7880    14.2580 hc         1 E5D       0.043700
     55 H19         30.6840     6.2550    13.3190 h1         1 E5D       0.098700
     56 H20         30.1400     5.2560    16.0430 hn         1 E5D       0.310500
     57 H21         29.2950     6.5420    17.4940 ha         1 E5D       0.116000
     58 H22         25.3110     6.4230    19.0270 ha         1 E5D       0.131000
     59 H23         24.4590     5.9070    16.7740 ha         1 E5D       0.123000
     60 H24         26.0110     5.7200    14.8680 ha         1 E5D       0.136000
     61 H25         31.8680     3.8660    14.7810 h1         1 E5D       0.022700
     62 H26         30.5290     4.0370    12.0590 h1         1 E5D       0.053200
     63 H27         29.6520     3.6260    13.5210 h1         1 E5D       0.053200
     64 H28         29.2850     1.5830    11.9400 h1         1 E5D       0.035200
     65 H29         30.5780     0.4080    12.0260 h1         1 E5D       0.035200
     66 H30         32.5680     2.8580    11.0440 ha         1 E5D       0.144000
     67 H31         31.8610     2.6620     6.8260 ha         1 E5D       0.107000
     68 H32         29.7840     1.3940     7.2490 ha         1 E5D       0.109000
     69 H33         29.0910     0.8770     9.5600 ha         1 E5D       0.105000
     70 H34         33.7650     3.7310     7.5840 hc         1 E5D       0.043700
     71 H35         32.5620     5.5830     8.7040 hc         1 E5D       0.035367
     72 H36         33.2290     5.1040    10.2640 hc         1 E5D       0.035367
     73 H37         34.2970     5.7090     8.9940 hc         1 E5D       0.035367
     74 H38         35.0040     2.0200     8.9110 hc         1 E5D       0.035367
     75 H39         35.7410     3.6170     9.0420 hc         1 E5D       0.035367
     76 H40         34.7740     2.9840    10.3710 hc         1 E5D       0.035367
     77 H41         32.6220    10.4220    17.6220 hc         1 E5D       0.041700
     78 H42         31.9580    10.8430    16.0650 hc         1 E5D       0.041700
     79 H43         30.5810     7.9540    15.7190 hc         1 E5D       0.047700
     80 H44         31.0160     1.7220    13.7590 hn         1 E5D       0.408000
     81 H46         33.5420     4.7550    13.6360 ho         1 E5D       0.439000
     82 O15         28.2910     6.3850    13.7660 o          1 E5D      -0.594100
@<TRIPOS>BOND
     1     1     2 1   
     2     1    37 1   
     3     1    38 1   
     4     1    39 1   
     5     2    34 1   
     6     2    40 1   
     7     2    41 1   
     8     3     4 1   
     9     3    34 1   
    10     3    42 1   
    11     3    43 1   
    12     4     5 1   
    13     4    44 1   
    14     4    45 1   
    15     5    31 1   
    16     5    46 1   
    17     5    47 1   
    18     6    31 1   
    19     6    32 1   
    20     6    48 1   
    21     6    49 1   
    22     7    32 1   
    23     7    50 1   
    24     7    51 1   
    25     7    52 1   
    26     8     9 1   
    27     8    32 1   
    28     8    53 1   
    29     8    54 1   
    30     9    10 1   
    31     9    19 1   
    32     9    55 1   
    33    10    12 1   
    34    10    56 1   
    35    11    14 ar  
    36    11    15 ar  
    37    11    18 1   
    38    12    13 1   
    39    12    82 2   
    40    13    14 ar  
    41    13    17 ar  
    42    14    57 1   
    43    15    16 ar  
    44    15    58 1   
    45    16    17 ar  
    46    16    59 1   
    47    17    60 1   
    48    18    34 1   
    49    18    35 2   
    50    19    20 1   
    51    19    36 1   
    52    19    61 1   
    53    20    33 1   
    54    20    62 1   
    55    20    63 1   
    56    21    22 1   
    57    21    33 1   
    58    21    64 1   
    59    21    65 1   
    60    22    23 ar  
    61    22    27 ar  
    62    23    24 ar  
    63    23    66 1   
    64    24    25 ar  
    65    24    28 1   
    66    25    26 ar  
    67    25    67 1   
    68    26    27 ar  
    69    26    68 1   
    70    27    69 1   
    71    28    29 1   
    72    28    30 1   
    73    28    70 1   
    74    29    71 1   
    75    29    72 1   
    76    29    73 1   
    77    30    74 1   
    78    30    75 1   
    79    30    76 1   
    80    31    77 1   
    81    31    78 1   
    82    32    79 1   
    83    33    80 1   
    84    36    81 1   
@<TRIPOS>SUBSTRUCTURE
     1 E5D         1 TEMP              0 ****  ****    0 ROOT
