@<TRIPOS>MOLECULE
E5E
   24    24     1     0     0
SMALL
bcc


@<TRIPOS>ATOM
      1 OAC         -2.6860    -1.7200    -0.8810 oh         1 E5E      -0.478100
      2 CAJ         -1.8200    -0.7840    -0.4380 ca         1 E5E       0.133100
      3 CAG         -0.4590    -0.9800    -0.6140 ca         1 E5E      -0.108000
      4 CAI         -2.2720     0.4020     0.1560 ca         1 E5E       0.088100
      5 OAB         -3.6110     0.5290     0.3090 oh         1 E5E      -0.492100
      6 CAE         -1.3570     1.3640     0.5490 ca         1 E5E      -0.167000
      7 CAF          0.0040     1.1610     0.3620 ca         1 E5E      -0.123000
      8 CAK          0.4630    -0.0130    -0.2240 ca         1 E5E      -0.165300
      9 CAL          1.9370    -0.2570    -0.4290 c3         1 E5E       0.191400
     10 OAD          2.5460     0.6480    -1.3230 oh         1 E5E      -0.596800
     11 CAH          2.6570    -0.2340     0.9170 c3         1 E5E       0.087800
     12 NAA          4.1060    -0.4980     0.7210 nz         1 E5E      -0.832600
     13 HOAC        -3.5150    -1.6640    -0.3910 ho         1 E5E       0.454000
     14 HAG         -0.1200    -1.9060    -1.0640 ha         1 E5E       0.156000
     15 HOAB        -3.8080     1.1790     0.9950 ho         1 E5E       0.446000
     16 HAE         -1.7080     2.2850     0.9990 ha         1 E5E       0.152000
     17 HAF          0.6870     1.9380     0.6830 ha         1 E5E       0.124000
     18 HAL          2.0670    -1.2500    -0.8680 h1         1 E5E       0.094700
     19 HOAD         2.2120     1.5370    -1.1580 ho         1 E5E       0.436000
     20 HAH          2.5810     0.7420     1.3910 hx         1 E5E       0.110200
     21 HAHA         2.2720    -1.0040     1.5810 hx         1 E5E       0.110200
     22 HNAA         4.2820    -1.4370     0.3660 hn         1 E5E       0.459800
     23 HNAB         4.5120     0.1610     0.0550 hn         1 E5E       0.459800
     24 HNAC         4.6230    -0.4120     1.5950 hn         1 E5E       0.459800
@<TRIPOS>BOND
     1     1     2 1   
     2     1    13 1   
     3     2     3 ar  
     4     2     4 ar  
     5     3     8 ar  
     6     3    14 1   
     7     4     5 1   
     8     4     6 ar  
     9     5    15 1   
    10     6     7 ar  
    11     6    16 1   
    12     7     8 ar  
    13     7    17 1   
    14     8     9 1   
    15     9    10 1   
    16     9    11 1   
    17     9    18 1   
    18    10    19 1   
    19    11    12 1   
    20    11    20 1   
    21    11    21 1   
    22    12    22 1   
    23    12    23 1   
    24    12    24 1   
@<TRIPOS>SUBSTRUCTURE
     1 E5E         1 TEMP              0 ****  ****    0 ROOT
