@<TRIPOS>MOLECULE
E5E
   24    24     1     0     0
SMALL
No Charge or Current Charge


@<TRIPOS>ATOM
      1 OAC         -2.7380    -1.6930    -0.9430 oh         1 E5E      -0.517100
      2 CAJ         -1.8440    -0.7780    -0.4650 ca         1 E5E       0.133100
      3 CAG         -0.4660    -0.9740    -0.6570 ca         1 E5E      -0.090000
      4 CAI         -2.3100     0.3630     0.2200 ca         1 E5E       0.088100
      5 OAB         -3.6560     0.5490     0.4040 oh         1 E5E      -0.531100
      6 CAE         -1.3910     1.3050     0.7110 ca         1 E5E      -0.149000
      7 CAF         -0.0110     1.1090     0.5190 ca         1 E5E      -0.105000
      8 CAK          0.4630    -0.0330    -0.1630 ca         1 E5E      -0.165300
      9 CAL          1.9580    -0.2520    -0.3730 c3         1 E5E       0.214600
     10 OAD          2.4660     0.7790    -1.2250 oh         1 E5E      -0.659000
     11 CAH          2.7460    -0.2240     0.9600 c3         1 E5E       0.059600
     12 NAA          4.2350    -0.4580     0.7630 nz         1 E5E      -0.970000
     13 HOAC        -3.6310    -1.3580    -0.6990 ho         1 E5E       0.493000
     14 HAG         -0.1250    -1.8600    -1.1880 ha         1 E5E       0.138000
     15 HOAB        -3.7980     1.3880     0.8960 ho         1 E5E       0.485000
     16 HAE         -1.7360     2.1920     1.2390 ha         1 E5E       0.134000
     17 HAF          0.6880     1.8510     0.8990 ha         1 E5E       0.106000
     18 HAL          2.1110    -1.2380    -0.8370 h1         1 E5E       0.094700
     19 HOAD         1.8000     0.8980    -1.9390 ho         1 E5E       0.475000
     20 HAH          2.5970     0.7520     1.4320 hx         1 E5E       0.110200
     21 HAHA         2.3420    -0.9910     1.6290 hx         1 E5E       0.110200
     22 HNAA         4.4640    -1.3990     0.4060 hn         1 E5E       0.515000
     23 HNAB         4.6370     0.2000     0.0760 hn         1 E5E       0.515000
     24 HNAC         4.7910    -0.3420     1.6250 hn         1 E5E       0.515000
@<TRIPOS>BOND
     1     1     2 1   
     2     1    13 1   
     3     2     3 ar  
     4     2     4 ar  
     5     3     8 ar  
     6     3    14 1   
     7     4     5 1   
     8     4     6 ar  
     9     5    15 1   
    10     6     7 ar  
    11     6    16 1   
    12     7     8 ar  
    13     7    17 1   
    14     8     9 1   
    15     9    10 1   
    16     9    11 1   
    17     9    18 1   
    18    10    19 1   
    19    11    12 1   
    20    11    20 1   
    21    11    21 1   
    22    12    22 1   
    23    12    23 1   
    24    12    24 1   
@<TRIPOS>SUBSTRUCTURE
     1 E5E         1 TEMP              0 ****  ****    0 ROOT
