@<TRIPOS>MOLECULE
E5G
   40    40     1     0     0
SMALL
No Charge or Current Charge


@<TRIPOS>ATOM
      1 O6           5.6620   -13.9910    -0.0620 oh         1 E5G      -0.705000
      2 C6           4.8190   -12.8220    -0.0920 c3         1 E5G       0.169600
      3 C5           5.5060   -11.5790    -0.7510 c6         1 E5G       0.142300
      4 O5           5.9400   -11.9580    -2.0880 os         1 E5G      -0.467000
      5 C4           4.5620   -10.3340    -0.8290 c6         1 E5G       0.107300
      6 O4           4.1400    -9.8800     0.4770 oh         1 E5G      -0.721000
      7 C3           5.3080    -9.1820    -1.5640 c6         1 E5G       0.133300
      8 O3           4.4530    -8.0270    -1.6770 oh         1 E5G      -0.671000
      9 C2           5.7850    -9.6540    -2.9660 c6         1 E5G       0.163300
     10 O2           6.4560    -8.5640    -3.6400 oh         1 E5G      -0.700000
     11 C1           6.6740   -10.9390    -2.8090 c6         1 E5G       0.390300
     12 O1           7.9130   -10.6650    -2.1200 os         1 E5G      -0.471000
     13 C15          8.8670   -11.7380    -2.0760 c3         1 E5G       0.165600
     14 C14         10.1150   -11.2440    -1.3170 c3         1 E5G      -0.078400
     15 C13         10.8690   -10.0930    -2.0310 c3         1 E5G      -0.076400
     16 C12         12.1000    -9.5600    -1.2580 c3         1 E5G      -0.080400
     17 C11         13.2480   -10.5830    -1.1090 c3         1 E5G       0.161600
     18 O11         14.3610    -9.9650    -0.4570 oh         1 E5G      -0.664000
     19 HO6          5.1150   -14.7300     0.2920 ho         1 E5G       0.503000
     20 H61          4.5270   -12.5540     0.9320 h1         1 E5G       0.022200
     21 H62          3.8980   -13.0400    -0.6490 h1         1 E5G       0.022200
     22 H5           6.3890   -11.3250    -0.1470 h1         1 E5G       0.076700
     23 H4           3.6810   -10.6100    -1.4300 h1         1 E5G       0.048700
     24 HO4          3.3710   -10.4330     0.7530 ho         1 E5G       0.509000
     25 H3           6.1980    -8.9270    -0.9680 h1         1 E5G       0.074700
     26 HO3          3.9820    -7.9800    -0.8130 ho         1 E5G       0.462000
     27 H2           4.8960    -9.9430    -3.5460 h1         1 E5G       0.048700
     28 HO2          5.9600    -7.7590    -3.3520 ho         1 E5G       0.521000
     29 H1           6.9050   -11.3140    -3.8180 h2         1 E5G       0.079700
     30 H12          8.4490   -12.6080    -1.5510 h1         1 E5G       0.032200
     31 H13          9.1510   -12.0510    -3.0900 h1         1 E5G       0.032200
     32 H14          9.8170   -10.9210    -0.3110 hc         1 E5G       0.046200
     33 H15         10.7910   -12.0970    -1.1880 hc         1 E5G       0.046200
     34 H16         11.1840   -10.4270    -3.0270 hc         1 E5G       0.050700
     35 H17         10.1760    -9.2560    -2.1880 hc         1 E5G       0.050700
     36 H18         12.4830    -8.6780    -1.7860 hc         1 E5G       0.052700
     37 H19         11.7850    -9.2200    -0.2640 hc         1 E5G       0.052700
     38 H20         13.5430   -10.9430    -2.1030 h1         1 E5G       0.014200
     39 H21         12.9010   -11.4440    -0.5240 h1         1 E5G       0.014200
     40 H22         15.0650   -10.6480    -0.3870 ho         1 E5G       0.440000
@<TRIPOS>BOND
     1     1     2 1   
     2     1    19 1   
     3     2     3 1   
     4     2    20 1   
     5     2    21 1   
     6     3     4 1   
     7     3     5 1   
     8     3    22 1   
     9     4    11 1   
    10     5     6 1   
    11     5     7 1   
    12     5    23 1   
    13     6    24 1   
    14     7     8 1   
    15     7     9 1   
    16     7    25 1   
    17     8    26 1   
    18     9    10 1   
    19     9    11 1   
    20     9    27 1   
    21    10    28 1   
    22    11    12 1   
    23    11    29 1   
    24    12    13 1   
    25    13    14 1   
    26    13    30 1   
    27    13    31 1   
    28    14    15 1   
    29    14    32 1   
    30    14    33 1   
    31    15    16 1   
    32    15    34 1   
    33    15    35 1   
    34    16    17 1   
    35    16    36 1   
    36    16    37 1   
    37    17    18 1   
    38    17    38 1   
    39    17    39 1   
    40    18    40 1   
@<TRIPOS>SUBSTRUCTURE
     1 E5G         1 TEMP              0 ****  ****    0 ROOT
