@<TRIPOS>MOLECULE
E5G
   40    40     1     0     0
SMALL
abcg2


@<TRIPOS>ATOM
      1 O6           5.2950   -14.0080    -0.2220 oh         1 E5G      -0.705000
      2 C6           4.4870   -12.8680    -0.3930 c3         1 E5G       0.169600
      3 C5           5.3590   -11.6870    -0.7600 c6         1 E5G       0.142300
      4 O5           5.9520   -11.9760    -2.0180 os         1 E5G      -0.467000
      5 C4           4.5510   -10.3870    -0.8480 c6         1 E5G       0.107300
      6 O4           4.0700    -9.9860     0.4160 oh         1 E5G      -0.721000
      7 C3           5.4350    -9.2610    -1.3710 c6         1 E5G       0.133300
      8 O3           4.6960    -8.0880    -1.6140 oh         1 E5G      -0.671000
      9 C2           6.0750    -9.6750    -2.6890 c6         1 E5G       0.163300
     10 O2           6.9770    -8.7200    -3.1820 oh         1 E5G      -0.700000
     11 C1           6.8190   -10.9970    -2.5170 c6         1 E5G       0.390300
     12 O1           7.9180   -10.7800    -1.7040 os         1 E5G      -0.471000
     13 C15          8.8880   -11.8110    -1.6840 c3         1 E5G       0.165600
     14 C14         10.1970   -11.2410    -1.1730 c3         1 E5G      -0.078400
     15 C13         10.7870   -10.1710    -2.0870 c3         1 E5G      -0.076400
     16 C12         12.0130    -9.4660    -1.5140 c3         1 E5G      -0.080400
     17 C11         13.2040   -10.3870    -1.3270 c3         1 E5G       0.161600
     18 O11         14.3120    -9.6180    -0.9050 oh         1 E5G      -0.664000
     19 HO6          4.7240   -14.7460     0.0080 ho         1 E5G       0.503000
     20 H61          3.9440   -12.6210     0.5280 h1         1 E5G       0.022200
     21 H62          3.7350   -13.0120    -1.1810 h1         1 E5G       0.022200
     22 H5           6.1310   -11.5620     0.0130 h1         1 E5G       0.076700
     23 H4           3.7240   -10.5340    -1.5590 h1         1 E5G       0.048700
     24 HO4          3.1940   -10.3540     0.5580 ho         1 E5G       0.509000
     25 H3           6.2270    -9.0750    -0.6310 h1         1 E5G       0.074700
     26 HO3          4.3600    -7.7640    -0.7720 ho         1 E5G       0.462000
     27 H2           5.2670    -9.8630    -3.4130 h1         1 E5G       0.048700
     28 HO2          6.4920    -7.9010    -3.3270 ho         1 E5G       0.521000
     29 H1           7.1360   -11.3780    -3.4990 h2         1 E5G       0.079700
     30 H12          8.5610   -12.6380    -1.0430 h1         1 E5G       0.032200
     31 H13          9.0260   -12.2200    -2.6950 h1         1 E5G       0.032200
     32 H14         10.0470   -10.8340    -0.1670 hc         1 E5G       0.046200
     33 H15         10.8940   -12.0750    -1.0620 hc         1 E5G       0.046200
     34 H16         11.0440   -10.6230    -3.0510 hc         1 E5G       0.050700
     35 H17         10.0250    -9.4180    -2.2980 hc         1 E5G       0.050700
     36 H18         12.3020    -8.6560    -2.1890 hc         1 E5G       0.052700
     37 H19         11.7550    -9.0010    -0.5580 hc         1 E5G       0.052700
     38 H20         13.4120   -10.9000    -2.2760 h1         1 E5G       0.014200
     39 H21         12.9660   -11.1680    -0.5930 h1         1 E5G       0.014200
     40 H22         15.0440   -10.2170    -0.7340 ho         1 E5G       0.440000
@<TRIPOS>BOND
     1     1     2 1   
     2     1    19 1   
     3     2     3 1   
     4     2    20 1   
     5     2    21 1   
     6     3     4 1   
     7     3     5 1   
     8     3    22 1   
     9     4    11 1   
    10     5     6 1   
    11     5     7 1   
    12     5    23 1   
    13     6    24 1   
    14     7     8 1   
    15     7     9 1   
    16     7    25 1   
    17     8    26 1   
    18     9    10 1   
    19     9    11 1   
    20     9    27 1   
    21    10    28 1   
    22    11    12 1   
    23    11    29 1   
    24    12    13 1   
    25    13    14 1   
    26    13    30 1   
    27    13    31 1   
    28    14    15 1   
    29    14    32 1   
    30    14    33 1   
    31    15    16 1   
    32    15    34 1   
    33    15    35 1   
    34    16    17 1   
    35    16    36 1   
    36    16    37 1   
    37    17    18 1   
    38    17    38 1   
    39    17    39 1   
    40    18    40 1   
@<TRIPOS>SUBSTRUCTURE
     1 E5G         1 TEMP              0 ****  ****    0 ROOT
