@<TRIPOS>MOLECULE
E5H
   54    56     1     0     0
SMALL
abcg2


@<TRIPOS>ATOM
      1 O01          0.9790    -2.4980    -0.3310 o          1 E5H      -0.566100
      2 C02          1.0000    -1.2870    -0.1940 c          1 E5H       0.599100
      3 N03          2.1260    -0.5700    -0.1050 ns         1 E5H      -0.515900
      4 C04          3.4440    -1.1710    -0.1440 c3         1 E5H       0.107000
      5 C05          4.5200    -0.1030    -0.0310 c3         1 E5H      -0.099400
      6 C06          5.9100    -0.7220    -0.1190 c3         1 E5H       0.174800
      7 N07          6.9700     0.1900     0.2620 n3         1 E5H      -0.722600
      8 C08          7.1320     1.2870    -0.6790 c6         1 E5H       0.168300
      9 C09          8.1700     2.2860    -0.1910 c6         1 E5H      -0.075400
     10 C10          9.5060     1.6030     0.0700 c6         1 E5H      -0.075400
     11 C11          9.3050     0.4090     0.9950 c6         1 E5H      -0.075400
     12 C12          8.2250    -0.5160     0.4560 c6         1 E5H       0.168300
     13 C13         -0.2660    -0.4480    -0.0950 c3         1 E5H       0.076600
     14 O14         -1.3600    -1.3050    -0.2690 os         1 E5H      -0.309100
     15 C15         -2.6040    -0.7930    -0.1780 ca         1 E5H       0.142100
     16 C16         -2.8950     0.5480     0.0490 ca         1 E5H      -0.170500
     17 C17         -4.2180     0.9630     0.1270 ca         1 E5H      -0.063000
     18 C18         -5.2770     0.0710    -0.0160 cp         1 E5H      -0.070000
     19 C19         -6.6790     0.5230     0.0790 cp         1 E5H      -0.026000
     20 C25         -4.9630    -1.2720    -0.2480 ca         1 E5H      -0.063000
     21 C26         -3.6530    -1.7010    -0.3290 ca         1 E5H      -0.170500
     22 H1           2.0640     0.4300     0.0100 hn         1 E5H       0.312500
     23 H2           3.5500    -1.8890     0.6740 h1         1 E5H       0.052700
     24 H3           3.5670    -1.7300    -1.0760 h1         1 E5H       0.052700
     25 H4           4.3720     0.6380    -0.8200 hc         1 E5H       0.051200
     26 H5           4.4260     0.4190     0.9260 hc         1 E5H       0.051200
     27 H6           5.9490    -1.5750     0.5650 h1         1 E5H       0.033200
     28 H7           6.0640    -1.1330    -1.1330 h1         1 E5H       0.033200
     29 H9           7.4260     0.9120    -1.6780 h1         1 E5H       0.028950
     30 H10          6.1760     1.7970    -0.8070 h1         1 E5H       0.028950
     31 H11          8.2780     3.0830    -0.9300 hc         1 E5H       0.046450
     32 H12          7.8090     2.7520     0.7310 hc         1 E5H       0.046450
     33 H13          9.9320     1.2600    -0.8790 hc         1 E5H       0.039200
     34 H14         10.2220     2.3080     0.4990 hc         1 E5H       0.039200
     35 H15         10.2340    -0.1520     1.1150 hc         1 E5H       0.046450
     36 H16          9.0110     0.7590     1.9900 hc         1 E5H       0.046450
     37 H17          8.0570    -1.3360     1.1590 h1         1 E5H       0.028950
     38 H18          8.5800    -0.9740    -0.4860 h1         1 E5H       0.028950
     39 H19         -0.2900     0.0460     0.8840 h1         1 E5H       0.047700
     40 H20         -0.2450     0.3410    -0.8570 h1         1 E5H       0.047700
     41 H21         -2.1140     1.2860     0.1750 ha         1 E5H       0.123000
     42 H22         -4.4160     2.0090     0.3240 ha         1 E5H       0.115500
     43 H26         -5.7550    -1.9970    -0.3890 ha         1 E5H       0.115500
     44 H27         -3.4330    -2.7450    -0.5170 ha         1 E5H       0.123000
     45 C1          -7.6510    -0.2800     0.6820 ca         1 E5H      -0.102500
     46 C2          -8.9690     0.1440     0.7720 ca         1 E5H      -0.110500
     47 C3          -9.3430     1.3810     0.2650 ca         1 E5H      -0.109000
     48 C4          -8.3860     2.1900    -0.3350 ca         1 E5H      -0.110500
     49 C5          -7.0690     1.7640    -0.4280 ca         1 E5H      -0.102500
     50 H8          -7.3730    -1.2370     1.1050 ha         1 E5H       0.113000
     51 H23         -9.7040    -0.4920     1.2490 ha         1 E5H       0.112000
     52 H24        -10.3710     1.7120     0.3360 ha         1 E5H       0.112000
     53 H25         -8.6670     3.1540    -0.7400 ha         1 E5H       0.112000
     54 H28         -6.3410     2.3980    -0.9200 ha         1 E5H       0.113000
@<TRIPOS>BOND
     1     1     2 2   
     2     2     3 1   
     3     2    13 1   
     4     3     4 1   
     5     3    22 1   
     6     4     5 1   
     7     4    23 1   
     8     4    24 1   
     9     5     6 1   
    10     5    25 1   
    11     5    26 1   
    12     6     7 1   
    13     6    27 1   
    14     6    28 1   
    15     7     8 1   
    16     7    12 1   
    17     8     9 1   
    18     8    29 1   
    19     8    30 1   
    20     9    10 1   
    21     9    31 1   
    22     9    32 1   
    23    10    11 1   
    24    10    33 1   
    25    10    34 1   
    26    11    12 1   
    27    11    35 1   
    28    11    36 1   
    29    12    37 1   
    30    12    38 1   
    31    13    14 1   
    32    13    39 1   
    33    13    40 1   
    34    14    15 1   
    35    15    16 ar  
    36    15    21 ar  
    37    16    17 ar  
    38    16    41 1   
    39    17    18 ar  
    40    17    42 1   
    41    18    19 1   
    42    18    20 ar  
    43    19    45 ar  
    44    19    49 ar  
    45    20    21 ar  
    46    20    43 1   
    47    21    44 1   
    48    45    46 ar  
    49    45    50 1   
    50    46    47 ar  
    51    46    51 1   
    52    47    48 ar  
    53    47    52 1   
    54    48    49 ar  
    55    48    53 1   
    56    49    54 1   
@<TRIPOS>SUBSTRUCTURE
     1 E5H         1 TEMP              0 ****  ****    0 ROOT
