@<TRIPOS>MOLECULE
E5H
   54    56     1     0     0
SMALL
No Charge or Current Charge


@<TRIPOS>ATOM
      1 O01          1.0440    -2.6390    -0.4250 o          1 E5H      -0.566100
      2 C02          1.0130    -1.4370    -0.1890 c          1 E5H       0.599100
      3 N03          2.1710    -0.7040    -0.0230 ns         1 E5H      -0.515900
      4 C04          3.5200    -1.2650    -0.1100 c3         1 E5H       0.107000
      5 C05          4.5990    -0.1810     0.0630 c3         1 E5H      -0.099400
      6 C06          6.0300    -0.7560    -0.0250 c3         1 E5H       0.174800
      7 N07          7.1110     0.2080     0.3020 n3         1 E5H      -0.722600
      8 C08          7.1940     1.3600    -0.6460 c6         1 E5H       0.168300
      9 C09          8.2720     2.3850    -0.2130 c6         1 E5H      -0.075400
     10 C10          9.6530     1.7090    -0.0520 c6         1 E5H      -0.075400
     11 C11          9.5400     0.4990     0.9020 c6         1 E5H      -0.075400
     12 C12          8.4300    -0.4740     0.4330 c6         1 E5H       0.168300
     13 C13         -0.2930    -0.6190    -0.0510 c3         1 E5H       0.076600
     14 O14         -1.4750    -1.4340    -0.2330 os         1 E5H      -0.309100
     15 C15         -2.7490    -0.9120    -0.1540 ca         1 E5H       0.142100
     16 C16         -2.9990     0.4510     0.1110 ca         1 E5H      -0.170500
     17 C17         -4.3210     0.9240     0.1790 ca         1 E5H      -0.063000
     18 C18         -5.4250     0.0550    -0.0130 cp         1 E5H      -0.070000
     19 C19         -6.8330     0.5620     0.0610 cp         1 E5H      -0.026000
     20 C25         -5.1510    -1.3110    -0.2770 ca         1 E5H      -0.063000
     21 C26         -3.8300    -1.7850    -0.3460 ca         1 E5H      -0.170500
     22 H1           2.0680     0.2850     0.1720 hn         1 E5H       0.312500
     23 H2           3.6370    -2.0290     0.6710 h1         1 E5H       0.052700
     24 H3           3.6410    -1.7510    -1.0880 h1         1 E5H       0.052700
     25 H4           4.4550     0.5820    -0.7100 hc         1 E5H       0.051200
     26 H5           4.4680     0.3060     1.0370 hc         1 E5H       0.051200
     27 H6           6.0860    -1.6030     0.6740 h1         1 E5H       0.033200
     28 H7           6.1850    -1.1650    -1.0330 h1         1 E5H       0.033200
     29 H9           7.4270     1.0000    -1.6590 h1         1 E5H       0.028950
     30 H10          6.2340     1.8900    -0.7040 h1         1 E5H       0.028950
     31 H11          8.3340     3.1940    -0.9530 hc         1 E5H       0.046450
     32 H12          7.9740     2.8500     0.7360 hc         1 E5H       0.046450
     33 H13         10.0210     1.3770    -1.0320 hc         1 E5H       0.039200
     34 H14         10.3860     2.4310     0.3350 hc         1 E5H       0.039200
     35 H15         10.5010    -0.0300     0.9540 hc         1 E5H       0.046450
     36 H16          9.3160     0.8470     1.9200 hc         1 E5H       0.046450
     37 H17          8.3620    -1.2990     1.1580 h1         1 E5H       0.028950
     38 H18          8.7260    -0.9160    -0.5300 h1         1 E5H       0.028950
     39 H19         -0.2910    -0.1600     0.9460 h1         1 E5H       0.047700
     40 H20         -0.2600     0.1840    -0.7970 h1         1 E5H       0.047700
     41 H21         -2.1860     1.1540     0.2680 ha         1 E5H       0.123000
     42 H22         -4.4910     1.9760     0.3980 ha         1 E5H       0.115500
     43 H26         -5.9690    -2.0070    -0.4430 ha         1 E5H       0.115500
     44 H27         -3.6430    -2.8350    -0.5530 ha         1 E5H       0.123000
     45 C1          -7.8750    -0.2400     0.5920 ca         1 E5H      -0.102500
     46 C2          -9.1950     0.2360     0.6620 ca         1 E5H      -0.110500
     47 C3          -9.5040     1.5250     0.2010 ca         1 E5H      -0.109000
     48 C4          -8.4890     2.3380    -0.3290 ca         1 E5H      -0.110500
     49 C5          -7.1690     1.8620    -0.3980 ca         1 E5H      -0.102500
     50 H8          -7.6560    -1.2370     0.9670 ha         1 E5H       0.113000
     51 H23         -9.9790    -0.3950     1.0770 ha         1 E5H       0.112000
     52 H24        -10.5260     1.8940     0.2550 ha         1 E5H       0.112000
     53 H25         -8.7260     3.3370    -0.6900 ha         1 E5H       0.112000
     54 H28         -6.4020     2.5030    -0.8250 ha         1 E5H       0.113000
@<TRIPOS>BOND
     1     1     2 2   
     2     2     3 1   
     3     2    13 1   
     4     3     4 1   
     5     3    22 1   
     6     4     5 1   
     7     4    23 1   
     8     4    24 1   
     9     5     6 1   
    10     5    25 1   
    11     5    26 1   
    12     6     7 1   
    13     6    27 1   
    14     6    28 1   
    15     7     8 1   
    16     7    12 1   
    17     8     9 1   
    18     8    29 1   
    19     8    30 1   
    20     9    10 1   
    21     9    31 1   
    22     9    32 1   
    23    10    11 1   
    24    10    33 1   
    25    10    34 1   
    26    11    12 1   
    27    11    35 1   
    28    11    36 1   
    29    12    37 1   
    30    12    38 1   
    31    13    14 1   
    32    13    39 1   
    33    13    40 1   
    34    14    15 1   
    35    15    16 ar  
    36    15    21 ar  
    37    16    17 ar  
    38    16    41 1   
    39    17    18 ar  
    40    17    42 1   
    41    18    19 1   
    42    18    20 ar  
    43    19    45 ar  
    44    19    49 ar  
    45    20    21 ar  
    46    20    43 1   
    47    21    44 1   
    48    45    46 ar  
    49    45    50 1   
    50    46    47 ar  
    51    46    51 1   
    52    47    48 ar  
    53    47    52 1   
    54    48    49 ar  
    55    48    53 1   
    56    49    54 1   
@<TRIPOS>SUBSTRUCTURE
     1 E5H         1 TEMP              0 ****  ****    0 ROOT
