@<TRIPOS>MOLECULE
E5I
   75    79     1     0     0
SMALL
No Charge or Current Charge


@<TRIPOS>ATOM
      1 C1         -24.7090     1.3280    13.5890 ce         1 E5I      -0.493400
      2 C10        -25.9490     4.7480    13.5060 c3         1 E5I      -0.142400
      3 C11        -25.4730     5.8370    14.4910 c3         1 E5I       0.111000
      4 C13        -24.2200     4.6400    16.3210 c          1 E5I       0.602300
      5 C14        -22.8370     4.3070    16.7830 ce         1 E5I      -0.296200
      6 C15        -22.4710     3.3710    17.6980 c2         1 E5I      -0.127200
      7 C16        -23.3650     2.4440    18.5120 c3         1 E5I      -0.058200
      8 C17        -22.7220     1.0980    18.9920 c6         1 E5I      -0.044700
      9 C18        -21.6040     1.2750    20.0620 c5         1 E5I      -0.062700
     10 C19        -21.1420    -0.0980    20.6140 c5         1 E5I      -0.166700
     11 C2         -25.8640     1.2150    12.7160 c          1 E5I       0.588200
     12 C20        -20.5130    -0.8500    19.4200 c          1 E5I       0.581100
     13 C21        -21.5290    -1.1140    18.2960 c6         1 E5I      -0.178400
     14 C22        -22.1870     0.2160    17.8070 c6         1 E5I      -0.035500
     15 C23        -23.2860    -0.0650    16.7900 c2         1 E5I      -0.116200
     16 C24        -23.4190     0.6540    15.6460 cf         1 E5I      -0.237000
     17 C27        -21.9710     1.9680    21.4030 c5         1 E5I      -0.065400
     18 C28        -20.6360     1.7400    22.1870 c5         1 E5I      -0.071700
     19 C29        -20.1600     0.3140    21.7640 c5         1 E5I      -0.050700
     20 C30        -20.9290     1.6410    23.7200 c5         1 E5I      -0.068400
     21 C31        -20.0520     0.4220    24.1450 c5         1 E5I      -0.065700
     22 C32        -20.4410    -0.5780    23.0140 c5         1 E5I      -0.053700
     23 C33        -20.3160    -0.0870    25.5870 c3         1 E5I      -0.067400
     24 C34        -19.9860     0.9330    26.6950 c3         1 E5I      -0.088100
     25 C35        -19.6750    -1.9210    23.0040 c3         1 E5I      -0.084100
     26 C4         -24.6550     3.0860    11.9320 c5         1 E5I       0.011700
     27 C5         -23.8650     2.4410    13.1050 c          1 E5I       0.612300
     28 C6         -25.0080     4.5590    12.2810 c3         1 E5I       0.162300
     29 C7         -24.5010     0.5360    14.6730 cf         1 E5I       0.353100
     30 N12        -24.2510     5.4360    15.1980 ns         1 E5I      -0.512900
     31 N3         -25.8190     2.1860    11.7720 ns         1 E5I      -0.481900
     32 O26        -22.7730     2.7780    13.5390 o          1 E5I      -0.546100
     33 O36        -19.3210    -1.0790    19.2570 o          1 E5I      -0.513100
     34 O37        -25.6030     5.1800    11.1340 oh         1 E5I      -0.669000
     35 O8         -25.3910    -0.4220    14.9410 oh         1 E5I      -0.536100
     36 O9         -26.7480     0.3830    12.8230 o          1 E5I      -0.612000
     37 H10B       -26.9620     4.9970    13.1640 hc         1 E5I       0.073200
     38 H10A       -26.0540     3.8110    14.0650 hc         1 E5I       0.073200
     39 H11A       -25.2830     6.7740    13.9500 h1         1 E5I       0.053700
     40 H11B       -26.2630     6.0320    15.2290 h1         1 E5I       0.053700
     41 HC14       -22.0500     4.8610    16.2750 ha         1 E5I       0.178000
     42 HC15       -21.4070     3.2430    17.9060 ha         1 E5I       0.169000
     43 H16A       -23.7490     2.9940    19.3790 hc         1 E5I       0.077700
     44 H16B       -24.2570     2.1930    17.9290 hc         1 E5I       0.077700
     45 HC17       -23.5480     0.5490    19.4670 hc         1 E5I       0.056700
     46 HC18       -20.7770     1.8020    19.5690 hc         1 E5I       0.054700
     47 HC19       -22.0450    -0.6350    20.9300 hc         1 E5I       0.069700
     48 H21A       -22.3420    -1.7080    18.7350 hc         1 E5I       0.071200
     49 H21B       -21.0570    -1.6640    17.4720 hc         1 E5I       0.071200
     50 HC22       -21.3920     0.7850    17.3020 hc         1 E5I       0.065700
     51 HC23       -24.0090    -0.8410    17.0500 ha         1 E5I       0.190000
     52 HC24       -22.6830     1.4290    15.4640 ha         1 E5I       0.220000
     53 H27B       -22.1980     3.0330    21.2830 hc         1 E5I       0.047700
     54 H27A       -22.8420     1.4940    21.8710 hc         1 E5I       0.047700
     55 HC28       -19.8790     2.4980    21.9520 hc         1 E5I       0.053700
     56 HC29       -19.1030     0.3220    21.4700 hc         1 E5I       0.067700
     57 H30B       -20.6450     2.5600    24.2450 hc         1 E5I       0.044200
     58 H30A       -21.9860     1.4600    23.9470 hc         1 E5I       0.044200
     59 HC31       -18.9850     0.6740    24.0910 hc         1 E5I       0.049700
     60 HC32       -21.5040    -0.8350    23.1020 hc         1 E5I       0.042700
     61 H33A       -21.3660    -0.3890    25.6890 hc         1 E5I       0.038700
     62 H33B       -19.7180    -0.9880    25.7720 hc         1 E5I       0.038700
     63 H34C       -20.1440     0.4860    27.6830 hc         1 E5I       0.032033
     64 H34A       -18.9400     1.2550    26.6270 hc         1 E5I       0.032033
     65 H34B       -20.6280     1.8190    26.6170 hc         1 E5I       0.032033
     66 H35C       -19.9060    -2.5180    23.8940 hc         1 E5I       0.038033
     67 H35B       -19.9460    -2.5200    22.1260 hc         1 E5I       0.038033
     68 H35A       -18.5910    -1.7590    22.9780 hc         1 E5I       0.038033
     69 HC4        -24.0020     3.0670    11.0510 h1         1 E5I       0.097700
     70 HC6        -24.0520     5.0570    12.4990 h1         1 E5I       0.051700
     71 HN12       -23.3570     5.7290    14.8250 hn         1 E5I       0.317500
     72 HN3        -26.5760     2.2780    11.1040 hn         1 E5I       0.346500
     73 HO37       -25.6910     6.1380    11.3330 ho         1 E5I       0.447000
     74 HO8        -26.0600    -0.3290    14.2160 ho         1 E5I       0.542000
     75 O25        -25.2410     4.2340    16.8530 o          1 E5I      -0.619100
@<TRIPOS>BOND
     1     1    11 1   
     2     1    27 1   
     3     1    29 2   
     4     2     3 1   
     5     2    28 1   
     6     2    37 1   
     7     2    38 1   
     8     3    30 1   
     9     3    39 1   
    10     3    40 1   
    11     4     5 1   
    12     4    30 1   
    13     4    75 2   
    14     5     6 2   
    15     5    41 1   
    16     6     7 1   
    17     6    42 1   
    18     7     8 1   
    19     7    43 1   
    20     7    44 1   
    21     8     9 1   
    22     8    14 1   
    23     8    45 1   
    24     9    10 1   
    25     9    17 1   
    26     9    46 1   
    27    10    12 1   
    28    10    19 1   
    29    10    47 1   
    30    11    31 1   
    31    11    36 2   
    32    12    13 1   
    33    12    33 2   
    34    13    14 1   
    35    13    48 1   
    36    13    49 1   
    37    14    15 1   
    38    14    50 1   
    39    15    16 2   
    40    15    51 1   
    41    16    29 1   
    42    16    52 1   
    43    17    18 1   
    44    17    53 1   
    45    17    54 1   
    46    18    19 1   
    47    18    20 1   
    48    18    55 1   
    49    19    22 1   
    50    19    56 1   
    51    20    21 1   
    52    20    57 1   
    53    20    58 1   
    54    21    22 1   
    55    21    23 1   
    56    21    59 1   
    57    22    25 1   
    58    22    60 1   
    59    23    24 1   
    60    23    61 1   
    61    23    62 1   
    62    24    63 1   
    63    24    64 1   
    64    24    65 1   
    65    25    66 1   
    66    25    67 1   
    67    25    68 1   
    68    26    27 1   
    69    26    28 1   
    70    26    31 1   
    71    26    69 1   
    72    27    32 2   
    73    28    34 1   
    74    28    70 1   
    75    29    35 1   
    76    30    71 1   
    77    31    72 1   
    78    34    73 1   
    79    35    74 1   
@<TRIPOS>SUBSTRUCTURE
     1 E5I         1 TEMP              0 ****  ****    0 ROOT
