@<TRIPOS>MOLECULE
E5I
   75    79     1     0     0
SMALL
abcg2


@<TRIPOS>ATOM
      1 C1         -24.8380     1.2480    13.6980 ce         1 E5I      -0.493400
      2 C10        -25.7680     4.6780    13.4870 c3         1 E5I      -0.142400
      3 C11        -25.2210     5.7830    14.3940 c3         1 E5I       0.111000
      4 C13        -24.0410     4.5550    16.1770 c          1 E5I       0.602300
      5 C14        -22.7030     4.2490    16.7380 ce         1 E5I      -0.296200
      6 C15        -22.4330     3.4220    17.7530 c2         1 E5I      -0.127200
      7 C16        -23.3800     2.5980    18.5700 c3         1 E5I      -0.058200
      8 C17        -22.7950     1.2590    19.0580 c6         1 E5I      -0.044700
      9 C18        -21.6330     1.4190    20.0340 c5         1 E5I      -0.062700
     10 C19        -21.1430     0.0560    20.5790 c5         1 E5I      -0.166700
     11 C2         -26.0910     1.2470    12.9440 c          1 E5I       0.588200
     12 C20        -20.6890    -0.7940    19.4310 c          1 E5I       0.581100
     13 C21        -21.7560    -0.9890    18.3740 c6         1 E5I      -0.178400
     14 C22        -22.3400     0.3570    17.8780 c6         1 E5I      -0.035500
     15 C23        -23.4730     0.1080    16.9440 c2         1 E5I      -0.116200
     16 C24        -23.5390     0.6230    15.7110 cf         1 E5I      -0.237000
     17 C27        -21.8810     2.2010    21.3260 c5         1 E5I      -0.065400
     18 C28        -20.7310     1.7700    22.2620 c5         1 E5I      -0.071700
     19 C29        -20.1690     0.4230    21.6930 c5         1 E5I      -0.050700
     20 C30        -21.0980     1.4610    23.7170 c5         1 E5I      -0.068400
     21 C31        -20.1190     0.3560    24.1330 c5         1 E5I      -0.065700
     22 C32        -20.0650    -0.5500    22.8850 c5         1 E5I      -0.053700
     23 C33        -20.4870    -0.3770    25.4200 c3         1 E5I      -0.067400
     24 C34        -20.4660     0.5100    26.6630 c3         1 E5I      -0.088100
     25 C35        -18.8500    -1.4680    22.8300 c3         1 E5I      -0.084100
     26 C4         -24.7380     2.8930    11.9680 c5         1 E5I       0.011700
     27 C5         -23.9470     2.2080    13.0950 c          1 E5I       0.612300
     28 C6         -24.8820     4.3870    12.2680 c3         1 E5I       0.162300
     29 C7         -24.6980     0.5120    14.8590 cf         1 E5I       0.353100
     30 N12        -24.0160     5.3800    15.1020 ns         1 E5I      -0.512900
     31 N3         -25.9940     2.1590    11.9570 ns         1 E5I      -0.481900
     32 O26        -22.7930     2.5050    13.3680 o          1 E5I      -0.546100
     33 O36        -19.5700    -1.2610    19.3180 o          1 E5I      -0.513100
     34 O37        -25.3870     4.9960    11.0740 oh         1 E5I      -0.669000
     35 O8         -25.6860    -0.2770    15.2520 oh         1 E5I      -0.536100
     36 O9         -27.0780     0.5290    13.1930 o          1 E5I      -0.612000
     37 H10B       -26.7630     4.9550    13.1330 hc         1 E5I       0.073200
     38 H10A       -25.8950     3.7850    14.0980 hc         1 E5I       0.073200
     39 H11A       -24.9800     6.6770    13.8170 h1         1 E5I       0.053700
     40 H11B       -25.9790     6.0530    15.1290 h1         1 E5I       0.053700
     41 HC14       -21.8710     4.7590    16.2650 ha         1 E5I       0.178000
     42 HC15       -21.3850     3.3420    18.0280 ha         1 E5I       0.169000
     43 H16A       -23.6680     3.1790    19.4530 hc         1 E5I       0.077700
     44 H16B       -24.2980     2.4300    18.0130 hc         1 E5I       0.077700
     45 HC17       -23.6000     0.7370    19.5870 hc         1 E5I       0.056700
     46 HC18       -20.7870     1.8790    19.5100 hc         1 E5I       0.054700
     47 HC19       -22.0220    -0.4430    21.0070 hc         1 E5I       0.069700
     48 H21A       -22.5630    -1.5790    18.8220 hc         1 E5I       0.071200
     49 H21B       -21.3400    -1.5540    17.5400 hc         1 E5I       0.071200
     50 HC22       -21.5520     0.8880    17.3370 hc         1 E5I       0.065700
     51 HC23       -24.3000    -0.4820    17.3300 ha         1 E5I       0.190000
     52 HC24       -22.7380     1.2360    15.3250 ha         1 E5I       0.220000
     53 H27B       -21.9130     3.2790    21.1670 hc         1 E5I       0.047700
     54 H27A       -22.8450     1.8990    21.7470 hc         1 E5I       0.047700
     55 HC28       -19.9420     2.5250    22.2440 hc         1 E5I       0.053700
     56 HC29       -19.1790     0.5810    21.2600 hc         1 E5I       0.067700
     57 H30B       -21.0560     2.3400    24.3610 hc         1 E5I       0.044200
     58 H30A       -22.1190     1.0660    23.7660 hc         1 E5I       0.044200
     59 HC31       -19.1250     0.8070    24.2640 hc         1 E5I       0.049700
     60 HC32       -20.9690    -1.1720    22.9000 hc         1 E5I       0.042700
     61 H33A       -21.4840    -0.8170    25.2970 hc         1 E5I       0.038700
     62 H33B       -19.7970    -1.2130    25.5660 hc         1 E5I       0.038700
     63 H34C       -20.6930    -0.0660    27.5630 hc         1 E5I       0.032033
     64 H34A       -19.4820     0.9670    26.7990 hc         1 E5I       0.032033
     65 H34B       -21.1980     1.3170    26.5910 hc         1 E5I       0.032033
     66 H35C       -18.8090    -2.1310    23.6970 hc         1 E5I       0.038033
     67 H35B       -18.8650    -2.0890    21.9330 hc         1 E5I       0.038033
     68 H35A       -17.9280    -0.8790    22.8130 hc         1 E5I       0.038033
     69 HC4        -24.2040     2.7760    11.0230 h1         1 E5I       0.097700
     70 HC6        -23.8650     4.7490    12.4550 h1         1 E5I       0.051700
     71 HN12       -23.1240     5.6810    14.7430 hn         1 E5I       0.317500
     72 HN3        -26.7600     2.3750    11.3370 hn         1 E5I       0.346500
     73 HO37       -25.5030     5.9400    11.2390 ho         1 E5I       0.447000
     74 HO8        -26.4240    -0.1890    14.5790 ho         1 E5I       0.542000
     75 O25        -25.1050     4.1260    16.6390 o          1 E5I      -0.619100
@<TRIPOS>BOND
     1     1    11 1   
     2     1    27 1   
     3     1    29 2   
     4     2     3 1   
     5     2    28 1   
     6     2    37 1   
     7     2    38 1   
     8     3    30 1   
     9     3    39 1   
    10     3    40 1   
    11     4     5 1   
    12     4    30 1   
    13     4    75 2   
    14     5     6 2   
    15     5    41 1   
    16     6     7 1   
    17     6    42 1   
    18     7     8 1   
    19     7    43 1   
    20     7    44 1   
    21     8     9 1   
    22     8    14 1   
    23     8    45 1   
    24     9    10 1   
    25     9    17 1   
    26     9    46 1   
    27    10    12 1   
    28    10    19 1   
    29    10    47 1   
    30    11    31 1   
    31    11    36 2   
    32    12    13 1   
    33    12    33 2   
    34    13    14 1   
    35    13    48 1   
    36    13    49 1   
    37    14    15 1   
    38    14    50 1   
    39    15    16 2   
    40    15    51 1   
    41    16    29 1   
    42    16    52 1   
    43    17    18 1   
    44    17    53 1   
    45    17    54 1   
    46    18    19 1   
    47    18    20 1   
    48    18    55 1   
    49    19    22 1   
    50    19    56 1   
    51    20    21 1   
    52    20    57 1   
    53    20    58 1   
    54    21    22 1   
    55    21    23 1   
    56    21    59 1   
    57    22    25 1   
    58    22    60 1   
    59    23    24 1   
    60    23    61 1   
    61    23    62 1   
    62    24    63 1   
    63    24    64 1   
    64    24    65 1   
    65    25    66 1   
    66    25    67 1   
    67    25    68 1   
    68    26    27 1   
    69    26    28 1   
    70    26    31 1   
    71    26    69 1   
    72    27    32 2   
    73    28    34 1   
    74    28    70 1   
    75    29    35 1   
    76    30    71 1   
    77    31    72 1   
    78    34    73 1   
    79    35    74 1   
@<TRIPOS>SUBSTRUCTURE
     1 E5I         1 TEMP              0 ****  ****    0 ROOT
