@<TRIPOS>MOLECULE
E5J
   70    73     1     0     0
SMALL
abcg2


@<TRIPOS>ATOM
      1 C4          -6.3220     1.3900    -0.1850 c6         1 E5J       0.193800
      2 C14          6.2920    -0.9850    -0.4190 ca         1 E5J      -0.398500
      3 C5          -6.4470    -0.9910    -0.5110 c6         1 E5J       0.193800
      4 C6          -4.3240     0.0310     0.0460 ca         1 E5J       0.309000
      5 C11         -2.3010    -1.2470     0.4730 ca         1 E5J       0.134100
      6 C9          -3.6800    -1.1270     0.5090 ca         1 E5J      -0.219000
      7 C10         -3.5300     1.0670    -0.4450 ca         1 E5J      -0.188000
      8 C12         -2.1470     0.9390    -0.4870 ca         1 E5J      -0.049000
      9 C13         -1.5090    -0.2020    -0.0370 ca         1 E5J       0.244000
     10 N1          -5.7190     0.1070     0.1130 nh         1 E5J      -0.776400
     11 N2          -9.9940     0.3360    -0.0180 n3         1 E5J      -0.711600
     12 C3          -7.9130    -1.0010    -0.1130 c6         1 E5J      -0.080900
     13 N3          -0.1220    -0.3900    -0.1100 nu         1 E5J      -0.923900
     14 CL1          4.1220     3.2300     1.2120 cl         1 E5J      -0.153000
     15 P1           7.4990     0.2820     0.0660 py         1 E5J       1.194500
     16 O1          -1.6270    -2.3290     0.9060 os         1 E5J      -0.350100
     17 O2           6.8310     1.5060     0.6510 o          1 E5J      -0.561000
     18 N4           4.3970     0.3970     0.1510 nu         1 E5J      -0.957900
     19 N5           2.0950     0.0350     0.0340 nb         1 E5J      -0.334000
     20 N6           0.5230     1.6960     0.6650 nb         1 E5J      -0.254000
     21 C1          -8.5970     0.3240    -0.4420 c6         1 E5J       0.184500
     22 C2          -7.7860     1.4320     0.2250 c6         1 E5J      -0.080900
     23 C15          0.8530     0.4920     0.2120 ca         1 E5J       0.426900
     24 C16          4.8910    -0.8140    -0.3330 ca         1 E5J       0.407000
     25 C17         -2.3540    -3.4320     1.4100 c3         1 E5J       0.150900
     26 C18          8.6320    -0.5210     1.2240 c3         1 E5J      -0.477600
     27 C19          8.4680     0.6420    -1.4160 c3         1 E5J      -0.477600
     28 C20          6.8120    -2.1840    -0.9030 ca         1 E5J      -0.038000
     29 C21          3.1200     0.8180     0.3200 ca         1 E5J       0.447900
     30 C22          4.0740    -1.8760    -0.7450 ca         1 E5J      -0.158000
     31 C23          5.9960    -3.2240    -1.3080 ca         1 E5J      -0.158000
     32 C24          4.6230    -3.0540    -1.2220 ca         1 E5J      -0.045000
     33 C25          2.8610     2.1220     0.8130 ca         1 E5J      -0.116000
     34 C26          1.5470     2.4900     0.9590 ca         1 E5J       0.173900
     35 H1          -5.7880     2.1700     0.3590 h1         1 E5J       0.036450
     36 H2          -6.2410     1.6360    -1.2570 h1         1 E5J       0.036450
     37 H3          -6.3660    -0.9280    -1.6080 h1         1 E5J       0.036450
     38 H4          -6.0060    -1.9420    -0.2210 h1         1 E5J       0.036450
     39 H5         -11.6940     1.5420    -0.0050 h1         1 E5J       0.030200
     40 H6         -10.2040     2.4130     0.2880 h1         1 E5J       0.030200
     41 H7         -10.6070     1.8920    -1.3550 h1         1 E5J       0.030200
     42 H8         -10.7160    -0.7400    -1.7200 h1         1 E5J       0.030200
     43 H9         -10.4270    -1.7150    -0.2720 h1         1 E5J       0.030200
     44 H10        -11.8080    -0.6410    -0.3340 h1         1 E5J       0.030200
     45 H11         -4.2750    -1.9230     0.9350 ha         1 E5J       0.122000
     46 H12         -3.9690     1.9750    -0.8320 ha         1 E5J       0.117000
     47 H13         -1.5620     1.7500    -0.8980 ha         1 E5J       0.134000
     48 H15         -8.3800    -1.8370    -0.6360 hc         1 E5J       0.055700
     49 H16         -8.0050    -1.1960     0.9600 hc         1 E5J       0.055700
     50 H17          0.2070    -1.3150    -0.3420 hn         1 E5J       0.517000
     51 H18          5.1350     1.0570     0.4220 hn         1 E5J       0.564000
     52 H19         -8.5320     0.4720    -1.5390 h1         1 E5J       0.017700
     53 H20         -7.8720     1.3360     1.3120 hc         1 E5J       0.055700
     54 H21         -8.1600     2.4210    -0.0430 hc         1 E5J       0.055700
     55 H22         -1.6190    -4.1850     1.6840 h1         1 E5J       0.041367
     56 H23         -2.9330    -3.1650     2.2970 h1         1 E5J       0.041367
     57 H24         -3.0290    -3.8520     0.6600 h1         1 E5J       0.041367
     58 H25          9.1250    -1.3880     0.7880 hc         1 E5J       0.082033
     59 H26          9.3980     0.1960     1.5210 hc         1 E5J       0.082033
     60 H27          8.0810    -0.8350     2.1090 hc         1 E5J       0.082033
     61 H28          7.8250     1.0990    -2.1670 hc         1 E5J       0.082033
     62 H29          9.2640     1.3430    -1.1610 hc         1 E5J       0.082033
     63 H30          8.9180    -0.2560    -1.8350 hc         1 E5J       0.082033
     64 H31          7.8860    -2.3150    -0.9670 ha         1 E5J       0.096000
     65 H32          3.0040    -1.7760    -0.6890 ha         1 E5J       0.157000
     66 H33          6.4230    -4.1450    -1.6800 ha         1 E5J       0.117000
     67 H34          3.9570    -3.8500    -1.5290 ha         1 E5J       0.113000
     68 H35          1.3060     3.4800     1.3320 h4         1 E5J       0.031100
     69 C7         -10.6440     1.6040    -0.2920 c3         1 E5J       0.150100
     70 C8         -10.7600    -0.7390    -0.6200 c3         1 E5J       0.150100
@<TRIPOS>BOND
     1     1    10 1   
     2     1    22 1   
     3     1    35 1   
     4     1    36 1   
     5     2    15 1   
     6     2    24 ar  
     7     2    28 ar  
     8     3    10 1   
     9     3    12 1   
    10     3    37 1   
    11     3    38 1   
    12     4     6 ar  
    13     4     7 ar  
    14     4    10 1   
    15     5     6 ar  
    16     5     9 ar  
    17     5    16 1   
    18     6    45 1   
    19     7     8 ar  
    20     7    46 1   
    21     8     9 ar  
    22     8    47 1   
    23     9    13 1   
    24    11    21 1   
    25    11    69 1   
    26    11    70 1   
    27    12    21 1   
    28    12    48 1   
    29    12    49 1   
    30    13    23 1   
    31    13    50 1   
    32    14    33 1   
    33    15    17 2   
    34    15    26 1   
    35    15    27 1   
    36    16    25 1   
    37    18    24 1   
    38    18    29 1   
    39    18    51 1   
    40    19    23 ar  
    41    19    29 ar  
    42    20    23 ar  
    43    20    34 ar  
    44    21    22 1   
    45    21    52 1   
    46    22    53 1   
    47    22    54 1   
    48    24    30 ar  
    49    25    55 1   
    50    25    56 1   
    51    25    57 1   
    52    26    58 1   
    53    26    59 1   
    54    26    60 1   
    55    27    61 1   
    56    27    62 1   
    57    27    63 1   
    58    28    31 ar  
    59    28    64 1   
    60    29    33 ar  
    61    30    32 ar  
    62    30    65 1   
    63    31    32 ar  
    64    31    66 1   
    65    32    67 1   
    66    33    34 ar  
    67    34    68 1   
    68    39    69 1   
    69    40    69 1   
    70    41    69 1   
    71    42    70 1   
    72    43    70 1   
    73    44    70 1   
@<TRIPOS>SUBSTRUCTURE
     1 E5J         1 TEMP              0 ****  ****    0 ROOT
