@<TRIPOS>MOLECULE
E5J
   70    73     1     0     0
SMALL
No Charge or Current Charge


@<TRIPOS>ATOM
      1 C4          -6.4210     1.4710    -0.0230 c6         1 E5J       0.193800
      2 C14          6.2590    -1.0500    -0.3970 ca         1 E5J      -0.398500
      3 C5          -6.4440    -0.8060    -1.0000 c6         1 E5J       0.193800
      4 C6          -4.2610     0.1970    -0.2950 ca         1 E5J       0.309000
      5 C11         -2.1520    -0.9870     0.0760 ca         1 E5J       0.134100
      6 C9          -3.5640    -0.9480     0.1200 ca         1 E5J      -0.219000
      7 C10         -3.5380     1.3070    -0.7650 ca         1 E5J      -0.188000
      8 C12         -2.1330     1.2800    -0.8130 ca         1 E5J      -0.049000
      9 C13         -1.4200     0.1410    -0.3810 ca         1 E5J       0.244000
     10 N1          -5.6710     0.2090    -0.2420 nh         1 E5J      -0.776400
     11 N2          -9.9370    -0.1270     0.6340 n3         1 E5J      -0.711600
     12 C3          -7.7870    -1.1190    -0.3040 c6         1 E5J      -0.080900
     13 N3          -0.0110     0.0670    -0.4200 nu         1 E5J      -0.923900
     14 Cl1          4.5100     3.7420    -0.5330 cl         1 E5J      -0.153000
     15 P1           7.2700     0.0100     0.6830 py         1 E5J       1.194500
     16 O1          -1.4450    -2.1150     0.4750 os         1 E5J      -0.350100
     17 O2           6.8940     1.4520     0.6710 o          1 E5J      -0.561000
     18 N4           4.5630     0.6720    -0.7000 nu         1 E5J      -0.957900
     19 N5           2.2410     0.4070    -0.5720 nb         1 E5J      -0.334000
     20 N6           0.7670     2.2890    -0.3630 nb         1 E5J      -0.254000
     21 C1          -8.6410     0.1660    -0.0790 c6         1 E5J       0.184500
     22 C2          -7.7670     1.2040     0.6880 c6         1 E5J      -0.080900
     23 C15          1.0340     0.9750    -0.4590 ca         1 E5J       0.426900
     24 C16          5.0440    -0.6100    -0.9540 ca         1 E5J       0.407000
     25 C17         -2.0940    -3.3070     0.9530 c3         1 E5J       0.150900
     26 C18          7.1510    -0.7470     2.3380 c3         1 E5J      -0.477600
     27 C19          9.0160    -0.2880     0.2360 c3         1 E5J      -0.477600
     28 C20          6.7130    -2.3640    -0.6550 ca         1 E5J      -0.038000
     29 C21          3.2940     1.2370    -0.6120 ca         1 E5J       0.447900
     30 C22          4.3270    -1.4750    -1.8030 ca         1 E5J      -0.158000
     31 C23          5.9780    -3.2190    -1.4860 ca         1 E5J      -0.158000
     32 C24          4.7850    -2.7740    -2.0690 ca         1 E5J      -0.045000
     33 C25          3.1360     2.6320    -0.5100 ca         1 E5J      -0.116000
     34 C26          1.8260     3.1210    -0.3890 ca         1 E5J       0.173900
     35 H1          -5.8310     2.1620     0.5970 h1         1 E5J       0.036450
     36 H2          -6.6100     1.9680    -0.9860 h1         1 E5J       0.036450
     37 H3          -6.6410    -0.4390    -2.0190 h1         1 E5J       0.036450
     38 H4          -5.8720    -1.7410    -1.0980 h1         1 E5J       0.036450
     39 H5         -11.7090     0.8030     1.3880 h1         1 E5J       0.030200
     40 H6         -10.2430     1.7490     1.6320 h1         1 E5J       0.030200
     41 H7         -10.9670     1.6400     0.0060 h1         1 E5J       0.030200
     42 H8         -10.9890    -0.8810    -1.0710 h1         1 E5J       0.030200
     43 H9         -10.2770    -2.1410    -0.0290 h1         1 E5J       0.030200
     44 H10        -11.7270    -1.2890     0.4950 h1         1 E5J       0.030200
     45 H11         -4.1360    -1.7940     0.4830 ha         1 E5J       0.122000
     46 H12         -4.0590     2.1930    -1.1140 ha         1 E5J       0.117000
     47 H13         -1.6120     2.1440    -1.2080 ha         1 E5J       0.134000
     48 H15         -8.3220    -1.8420    -0.9310 hc         1 E5J       0.055700
     49 H16         -7.5940    -1.6120     0.6580 hc         1 E5J       0.055700
     50 H17          0.3260    -0.8850    -0.2750 hn         1 E5J       0.517000
     51 H18          5.2860     1.3400    -0.4190 hn         1 E5J       0.564000
     52 H19         -8.8700     0.5900    -1.0680 h1         1 E5J       0.017700
     53 H20         -7.5760     0.8470     1.7090 hc         1 E5J       0.055700
     54 H21         -8.2860     2.1650     0.7790 hc         1 E5J       0.055700
     55 H22         -1.3480    -4.0690     1.2090 h1         1 E5J       0.041367
     56 H23         -2.6850    -3.0950     1.8530 h1         1 E5J       0.041367
     57 H24         -2.7570    -3.7250     0.1850 h1         1 E5J       0.041367
     58 H25          7.4380    -1.8020     2.2870 hc         1 E5J       0.082033
     59 H26          7.8170    -0.2180     3.0280 hc         1 E5J       0.082033
     60 H27          6.1180    -0.6670     2.6930 hc         1 E5J       0.082033
     61 H28          9.1200    -0.2500    -0.8530 hc         1 E5J       0.082033
     62 H29          9.6360     0.4920     0.6880 hc         1 E5J       0.082033
     63 H30          9.3440    -1.2670     0.6020 hc         1 E5J       0.082033
     64 H31          7.6390    -2.7300    -0.2160 ha         1 E5J       0.096000
     65 H32          3.4120    -1.1380    -2.2770 ha         1 E5J       0.157000
     66 H33          6.3370    -4.2270    -1.6840 ha         1 E5J       0.117000
     67 H34          4.2180    -3.4310    -2.7250 ha         1 E5J       0.113000
     68 H35          1.6200     4.1870    -0.3090 h4         1 E5J       0.031100
     69 C7         -10.7520     1.0810     0.9260 c3         1 E5J       0.150100
     70 C8         -10.7710    -1.1620    -0.0310 c3         1 E5J       0.150100
@<TRIPOS>BOND
     1     1    10 1   
     2     1    22 1   
     3     1    35 1   
     4     1    36 1   
     5     2    15 1   
     6     2    24 ar  
     7     2    28 ar  
     8     3    10 1   
     9     3    12 1   
    10     3    37 1   
    11     3    38 1   
    12     4     6 ar  
    13     4     7 ar  
    14     4    10 1   
    15     5     6 ar  
    16     5     9 ar  
    17     5    16 1   
    18     6    45 1   
    19     7     8 ar  
    20     7    46 1   
    21     8     9 ar  
    22     8    47 1   
    23     9    13 1   
    24    11    21 1   
    25    11    69 1   
    26    11    70 1   
    27    12    21 1   
    28    12    48 1   
    29    12    49 1   
    30    13    23 1   
    31    13    50 1   
    32    14    33 1   
    33    15    17 2   
    34    15    26 1   
    35    15    27 1   
    36    16    25 1   
    37    18    24 1   
    38    18    29 1   
    39    18    51 1   
    40    19    23 ar  
    41    19    29 ar  
    42    20    23 ar  
    43    20    34 ar  
    44    21    22 1   
    45    21    52 1   
    46    22    53 1   
    47    22    54 1   
    48    24    30 ar  
    49    25    55 1   
    50    25    56 1   
    51    25    57 1   
    52    26    58 1   
    53    26    59 1   
    54    26    60 1   
    55    27    61 1   
    56    27    62 1   
    57    27    63 1   
    58    28    31 ar  
    59    28    64 1   
    60    29    33 ar  
    61    30    32 ar  
    62    30    65 1   
    63    31    32 ar  
    64    31    66 1   
    65    32    67 1   
    66    33    34 ar  
    67    34    68 1   
    68    39    69 1   
    69    40    69 1   
    70    41    69 1   
    71    42    70 1   
    72    43    70 1   
    73    44    70 1   
@<TRIPOS>SUBSTRUCTURE
     1 E5J         1 TEMP              0 ****  ****    0 ROOT
