@<TRIPOS>MOLECULE
E5K
   67    70     1     0     0
SMALL
No Charge or Current Charge


@<TRIPOS>ATOM
      1 O01         -1.3230    -3.1870    -0.6790 o          1 E5K      -0.566100
      2 C02         -1.2730    -2.3130     0.1820 c          1 E5K       0.606100
      3 N03         -2.4070    -2.0400     0.9910 n          1 E5K      -0.413800
      4 C04         -3.7030    -2.7430     0.8030 c6         1 E5K       0.098000
      5 C05         -4.7820    -1.7710     0.2700 c6         1 E5K      -0.115400
      6 C06         -2.5060    -0.8880     1.9300 c6         1 E5K       0.098000
      7 C07         -3.5420     0.1360     1.4150 c6         1 E5K      -0.115400
      8 C08         -4.9260    -0.5400     1.2150 c6         1 E5K       0.198500
      9 N09         -5.9750     0.4430     0.8010 n3         1 E5K      -0.740600
     10 C10         -7.3640    -0.1060     0.9050 c6         1 E5K       0.174300
     11 C11         -8.4480     0.9720     0.5810 c6         1 E5K       0.164800
     12 N12         -8.2590     1.5910    -0.7680 n3         1 E5K      -0.720600
     13 C13         -9.3160     2.5830    -1.0790 c3         1 E5K       0.169800
     14 C14         -9.2980     3.1060    -2.5300 c3         1 E5K      -0.090100
     15 C15         -6.8650     2.1320    -0.8800 c6         1 E5K       0.164800
     16 C16         -5.7720     1.0630    -0.5510 c6         1 E5K       0.174300
     17 C17          0.0270    -1.5040     0.4360 c3         1 E5K       0.077600
     18 O18          1.1210    -1.9300    -0.4110 os         1 E5K      -0.310100
     19 C19          2.3680    -1.3440    -0.3510 ca         1 E5K       0.139100
     20 C20          2.6720    -0.2890     0.5350 ca         1 E5K      -0.169500
     21 C21          3.9640     0.2670     0.5500 ca         1 E5K      -0.067000
     22 C22          4.9810    -0.2100    -0.3160 cp         1 E5K      -0.060000
     23 C23          6.3550     0.3860    -0.2980 cp         1 E5K      -0.064000
     24 C31          4.6530    -1.2690    -1.1980 ca         1 E5K      -0.067000
     25 C32          3.3630    -1.8270    -1.2130 ca         1 E5K      -0.169500
     26 H1          -3.6000    -3.5900     0.1100 h1         1 E5K       0.055950
     27 H2          -4.0280    -3.1560     1.7690 h1         1 E5K       0.055950
     28 H3          -4.5000    -1.4500    -0.7410 hc         1 E5K       0.056200
     29 H4          -5.7330    -2.3100     0.1810 hc         1 E5K       0.056200
     30 H5          -2.8210    -1.2600     2.9160 h1         1 E5K       0.055950
     31 H6          -1.5400    -0.3880     2.0750 h1         1 E5K       0.055950
     32 H7          -3.6290     0.9650     2.1290 hc         1 E5K       0.056200
     33 H8          -3.1740     0.5620     0.4730 hc         1 E5K       0.056200
     34 H9          -5.2150    -0.9350     2.2020 h1         1 E5K       0.050700
     35 H11         -7.5020    -0.9450     0.2090 h1         1 E5K       0.037450
     36 H12         -7.5470    -0.4930     1.9190 h1         1 E5K       0.037450
     37 H13         -9.4390     0.4980     0.6460 h1         1 E5K       0.036950
     38 H14         -8.4130     1.7470     1.3610 h1         1 E5K       0.036950
     39 H16        -10.3000     2.1240    -0.9100 h1         1 E5K       0.028200
     40 H17         -9.2420     3.4400    -0.3960 h1         1 E5K       0.028200
     41 H18         -8.4060     3.7110    -2.7250 hc         1 E5K       0.037700
     42 H19         -9.3230     2.2730    -3.2420 hc         1 E5K       0.037700
     43 H20        -10.1760     3.7370    -2.7110 hc         1 E5K       0.037700
     44 H21         -6.6740     2.5050    -1.8960 h1         1 E5K       0.036950
     45 H22         -6.7360     2.9840    -0.1960 h1         1 E5K       0.036950
     46 H23         -4.7920     1.5530    -0.6180 h1         1 E5K       0.037450
     47 H24         -5.8050     0.2940    -1.3360 h1         1 E5K       0.037450
     48 H25         -0.2030    -0.4460     0.2580 h1         1 E5K       0.049200
     49 H26          0.2920    -1.6290     1.4930 h1         1 E5K       0.049200
     50 H27          1.9260     0.1120     1.2140 ha         1 E5K       0.122500
     51 H28          4.1730     1.0880     1.2310 ha         1 E5K       0.114000
     52 H32          5.4080    -1.6730    -1.8680 ha         1 E5K       0.114000
     53 H33          3.1340    -2.6420    -1.8960 ha         1 E5K       0.122500
     54 C1           7.1140     0.5120    -1.4880 ca         1 E5K      -0.065500
     55 C2           8.4040     1.0720    -1.4700 ca         1 E5K      -0.172000
     56 C3           8.9690     1.5180    -0.2660 ca         1 E5K       0.141100
     57 C4           8.2310     1.4010     0.9300 ca         1 E5K      -0.172000
     58 C5           6.9410     0.8420     0.9100 ca         1 E5K      -0.065500
     59 O1          10.2380     2.0580    -0.3100 os         1 E5K      -0.341100
     60 C7          10.9050     2.5450     0.8680 c3         1 E5K       0.148900
     61 H10          6.6960     0.1870    -2.4380 ha         1 E5K       0.113500
     62 H15          8.9670     1.1620    -2.3950 ha         1 E5K       0.121500
     63 H29          8.6390     1.7340     1.8800 ha         1 E5K       0.121500
     64 H30          6.3950     0.7500     1.8460 ha         1 E5K       0.113500
     65 H31         10.3350     3.3600     1.3310 h1         1 E5K       0.040367
     66 H34         11.0340     1.7410     1.6040 h1         1 E5K       0.040367
     67 H35         11.9000     2.9310     0.6100 h1         1 E5K       0.040367
@<TRIPOS>BOND
     1     1     2 2   
     2     2     3 1   
     3     2    17 1   
     4     3     4 1   
     5     3     6 1   
     6     4     5 1   
     7     4    26 1   
     8     4    27 1   
     9     5     8 1   
    10     5    28 1   
    11     5    29 1   
    12     6     7 1   
    13     6    30 1   
    14     6    31 1   
    15     7     8 1   
    16     7    32 1   
    17     7    33 1   
    18     8     9 1   
    19     8    34 1   
    20     9    10 1   
    21     9    16 1   
    22    10    11 1   
    23    10    35 1   
    24    10    36 1   
    25    11    12 1   
    26    11    37 1   
    27    11    38 1   
    28    12    13 1   
    29    12    15 1   
    30    13    14 1   
    31    13    39 1   
    32    13    40 1   
    33    14    41 1   
    34    14    42 1   
    35    14    43 1   
    36    15    16 1   
    37    15    44 1   
    38    15    45 1   
    39    16    46 1   
    40    16    47 1   
    41    17    18 1   
    42    17    48 1   
    43    17    49 1   
    44    18    19 1   
    45    19    20 ar  
    46    19    25 ar  
    47    20    21 ar  
    48    20    50 1   
    49    21    22 ar  
    50    21    51 1   
    51    22    23 1   
    52    22    24 ar  
    53    23    54 ar  
    54    23    58 ar  
    55    24    25 ar  
    56    24    52 1   
    57    25    53 1   
    58    54    55 ar  
    59    54    61 1   
    60    55    56 ar  
    61    55    62 1   
    62    56    57 ar  
    63    56    59 1   
    64    57    58 ar  
    65    57    63 1   
    66    58    64 1   
    67    59    60 1   
    68    60    65 1   
    69    60    66 1   
    70    60    67 1   
@<TRIPOS>SUBSTRUCTURE
     1 E5K         1 TEMP              0 ****  ****    0 ROOT
