@<TRIPOS>MOLECULE
E5K
   67    70     1     0     0
SMALL
bcc


@<TRIPOS>ATOM
      1 O01         -1.2240    -3.2620    -0.6120 o          1 E5K      -0.566100
      2 C02         -1.2650    -2.3760     0.2250 c          1 E5K       0.673100
      3 N03         -2.3490    -2.1090     0.9780 n          1 E5K      -0.480800
      4 C04         -3.6080    -2.7990     0.7500 c6         1 E5K       0.098000
      5 C05         -4.6440    -1.8370     0.1800 c6         1 E5K      -0.115400
      6 C06         -2.4710    -0.9870     1.8930 c6         1 E5K       0.098000
      7 C07         -3.4690     0.0360     1.3630 c6         1 E5K      -0.115400
      8 C08         -4.8240    -0.6190     1.0980 c6         1 E5K       0.198500
      9 N09         -5.8060     0.3600     0.6580 n3         1 E5K      -0.740600
     10 C10         -7.1800    -0.0270     0.9010 c6         1 E5K       0.174300
     11 C11         -8.1040     1.1520     0.6570 c6         1 E5K       0.164800
     12 N12         -7.9620     1.6540    -0.6970 n3         1 E5K      -0.720600
     13 C13         -8.8800     2.7500    -0.9510 c3         1 E5K       0.169800
     14 C14         -8.9900     3.1220    -2.4210 c3         1 E5K      -0.090100
     15 C15         -6.5810     2.0130    -0.9520 c6         1 E5K       0.164800
     16 C16         -5.6620     0.8300    -0.7050 c6         1 E5K       0.174300
     17 C17         -0.0430    -1.5010     0.4840 c3         1 E5K       0.054400
     18 O18          0.9760    -1.9430    -0.3700 os         1 E5K      -0.286900
     19 C19          2.1760    -1.3280    -0.2970 ca         1 E5K       0.139100
     20 C20          2.4680    -0.2600     0.5460 ca         1 E5K      -0.187500
     21 C21          3.7400     0.2970     0.5390 ca         1 E5K      -0.085000
     22 C22          4.7500    -0.1830    -0.2900 cp         1 E5K      -0.060000
     23 C23          6.0990     0.4130    -0.2790 cp         1 E5K      -0.064000
     24 C31          4.4340    -1.2550    -1.1310 ca         1 E5K      -0.085000
     25 C32          3.1740    -1.8190    -1.1390 ca         1 E5K      -0.187500
     26 H1          -3.4480    -3.6390     0.0800 h1         1 E5K       0.055950
     27 H2          -3.9560    -3.2030     1.7060 h1         1 E5K       0.055950
     28 H3          -4.3170    -1.5190    -0.8140 hc         1 E5K       0.056200
     29 H4          -5.5920    -2.3670     0.0550 hc         1 E5K       0.056200
     30 H5          -2.8100    -1.3710     2.8590 h1         1 E5K       0.055950
     31 H6          -1.5060    -0.5200     2.0750 h1         1 E5K       0.055950
     32 H7          -3.5860     0.8380     2.0950 hc         1 E5K       0.056200
     33 H8          -3.0670     0.4850     0.4500 hc         1 E5K       0.056200
     34 H9          -5.1850    -0.9920     2.0650 h1         1 E5K       0.050700
     35 H11         -7.5020    -0.8720     0.2690 h1         1 E5K       0.037450
     36 H12         -7.2860    -0.3460     1.9410 h1         1 E5K       0.037450
     37 H13         -9.1380     0.8330     0.8120 h1         1 E5K       0.036950
     38 H14         -7.8910     1.9330     1.4080 h1         1 E5K       0.036950
     39 H16         -9.8670     2.4410    -0.5970 h1         1 E5K       0.028200
     40 H17         -8.6090     3.6450    -0.3640 h1         1 E5K       0.028200
     41 H18         -8.0700     3.5510    -2.8170 hc         1 E5K       0.037700
     42 H19         -9.2450     2.2490    -3.0230 hc         1 E5K       0.037700
     43 H20         -9.7750     3.8650    -2.5580 hc         1 E5K       0.037700
     44 H21         -6.4660     2.3210    -1.9920 h1         1 E5K       0.036950
     45 H22         -6.2580     2.8620    -0.3240 h1         1 E5K       0.036950
     46 H23         -4.6320     1.1440    -0.8880 h1         1 E5K       0.037450
     47 H24         -5.8940     0.0490    -1.4470 h1         1 E5K       0.037450
     48 H25         -0.2890    -0.4490     0.2920 h1         1 E5K       0.049200
     49 H26          0.2620    -1.5820     1.5350 h1         1 E5K       0.049200
     50 H27          1.7250     0.1640     1.2080 ha         1 E5K       0.140500
     51 H28          3.9300     1.1420     1.1900 ha         1 E5K       0.132000
     52 H32          5.1920    -1.6740    -1.7810 ha         1 E5K       0.132000
     53 H33          2.9580    -2.6560    -1.7930 ha         1 E5K       0.140500
     54 C1           6.8610     0.5150    -1.4470 ca         1 E5K      -0.083500
     55 C2           8.1230     1.0760    -1.4400 ca         1 E5K      -0.190000
     56 C3           8.6730     1.5620    -0.2520 ca         1 E5K       0.141100
     57 C4           7.9310     1.4680     0.9230 ca         1 E5K      -0.190000
     58 C5           6.6650     0.8980     0.8970 ca         1 E5K      -0.083500
     59 O1           9.9070     2.0940    -0.3350 os         1 E5K      -0.317900
     60 C7          10.4880     2.6340     0.8350 c3         1 E5K       0.125700
     61 H10          6.4540     0.1700    -2.3900 ha         1 E5K       0.131500
     62 H15          8.6880     1.1530    -2.3610 ha         1 E5K       0.139500
     63 H29          8.3210     1.8200     1.8680 ha         1 E5K       0.139500
     64 H30          6.1210     0.8180     1.8300 ha         1 E5K       0.131500
     65 H31          9.8830     3.4410     1.2560 h1         1 E5K       0.040367
     66 H34         10.6440     1.8730     1.6040 h1         1 E5K       0.040367
     67 H35         11.4540     3.0380     0.5430 h1         1 E5K       0.040367
@<TRIPOS>BOND
     1     1     2 2   
     2     2     3 1   
     3     2    17 1   
     4     3     4 1   
     5     3     6 1   
     6     4     5 1   
     7     4    26 1   
     8     4    27 1   
     9     5     8 1   
    10     5    28 1   
    11     5    29 1   
    12     6     7 1   
    13     6    30 1   
    14     6    31 1   
    15     7     8 1   
    16     7    32 1   
    17     7    33 1   
    18     8     9 1   
    19     8    34 1   
    20     9    10 1   
    21     9    16 1   
    22    10    11 1   
    23    10    35 1   
    24    10    36 1   
    25    11    12 1   
    26    11    37 1   
    27    11    38 1   
    28    12    13 1   
    29    12    15 1   
    30    13    14 1   
    31    13    39 1   
    32    13    40 1   
    33    14    41 1   
    34    14    42 1   
    35    14    43 1   
    36    15    16 1   
    37    15    44 1   
    38    15    45 1   
    39    16    46 1   
    40    16    47 1   
    41    17    18 1   
    42    17    48 1   
    43    17    49 1   
    44    18    19 1   
    45    19    20 ar  
    46    19    25 ar  
    47    20    21 ar  
    48    20    50 1   
    49    21    22 ar  
    50    21    51 1   
    51    22    23 1   
    52    22    24 ar  
    53    23    54 ar  
    54    23    58 ar  
    55    24    25 ar  
    56    24    52 1   
    57    25    53 1   
    58    54    55 ar  
    59    54    61 1   
    60    55    56 ar  
    61    55    62 1   
    62    56    57 ar  
    63    56    59 1   
    64    57    58 ar  
    65    57    63 1   
    66    58    64 1   
    67    59    60 1   
    68    60    65 1   
    69    60    66 1   
    70    60    67 1   
@<TRIPOS>SUBSTRUCTURE
     1 E5K         1 TEMP              0 ****  ****    0 ROOT
