@<TRIPOS>MOLECULE
E5L
   67    67     1     0     0
SMALL
No Charge or Current Charge


@<TRIPOS>ATOM
      1 N           83.4110    99.6820   106.7680 ns         1 E5L      -0.149000
      2 C           84.0150    98.5150   107.3070 ca         1 E5L      -0.144000
      3 O           84.8740    98.0830   105.1160 os         1 E5L      -0.341100
      4 C1          84.7810    97.7050   106.4440 ca         1 E5L       0.182600
      5 C10         81.6600   101.3770   105.3840 c3         1 E5L      -0.085100
      6 C11         84.6040   102.1040   104.5020 c3         1 E5L      -0.081400
      7 C12         85.7050    97.3920   104.1680 c3         1 E5L       0.150400
      8 C13         81.6960    98.9490   109.3640 c3         1 E5L       0.150400
      9 C14         86.7980    94.2540   108.0860 c3         1 E5L       0.149900
     10 C15         85.6670   102.9710   103.7910 c3         1 E5L      -0.073400
     11 C16         86.4970   102.2110   102.7260 c3         1 E5L      -0.071400
     12 C17         87.3930   101.0790   103.2950 c3         1 E5L      -0.078400
     13 C18         88.1990   100.3010   102.2280 c3         1 E5L      -0.073400
     14 C19         89.2830   101.1350   101.5060 c3         1 E5L      -0.077400
     15 C2          83.8990    98.1610   108.6710 ca         1 E5L       0.182600
     16 C20         90.1240   100.2970   100.5150 c3         1 E5L      -0.074400
     17 C21         91.2680   101.0790    99.8270 c3         1 E5L      -0.073400
     18 C22         90.7960   102.2110    98.8910 c3         1 E5L      -0.089100
     19 C3          83.5230   101.0070   107.1670 c          1 E5L       0.612100
     20 C4          82.7100   102.0500   106.3270 c3         1 E5L      -0.119000
     21 C5          85.3480    96.2410   108.3130 ca         1 E5L       0.190100
     22 C6          85.4470    96.5670   106.9460 ca         1 E5L      -0.244000
     23 C7          84.5770    97.0400   109.1640 ca         1 E5L      -0.244000
     24 C8          83.7160   102.9070   105.4910 c3         1 E5L      -0.065400
     25 C9          81.9300   102.9790   107.3020 c3         1 E5L      -0.085100
     26 O1          83.1200    98.8740   109.5530 os         1 E5L      -0.341100
     27 O2          85.9800    95.1460   108.8650 os         1 E5L      -0.338100
     28 O3          84.2090   101.3440   108.1280 o          1 E5L      -0.582100
     29 H1          82.8770    99.5310   105.9220 hn         1 E5L       0.155000
     30 H2          80.9240   100.8060   105.9640 hc         1 E5L       0.040200
     31 H3          81.1130   102.1350   104.8100 hc         1 E5L       0.040200
     32 H4          82.1210   100.6920   104.6640 hc         1 E5L       0.040200
     33 H5          83.9750   101.6320   103.7390 hc         1 E5L       0.044700
     34 H6          85.1110   101.2990   105.0450 hc         1 E5L       0.044700
     35 H7          85.6410    97.8760   103.1850 h1         1 E5L       0.038700
     36 H8          86.7550    97.4090   104.4860 h1         1 E5L       0.038700
     37 H9          85.3850    96.3490   104.0550 h1         1 E5L       0.038700
     38 H10         81.2330    99.5110   110.1840 h1         1 E5L       0.038700
     39 H11         81.4380    99.4510   108.4240 h1         1 E5L       0.038700
     40 H12         81.2570    97.9430   109.3490 h1         1 E5L       0.038700
     41 H13         87.2030    93.4570   108.7230 h1         1 E5L       0.041367
     42 H14         86.2110    93.7850   107.2870 h1         1 E5L       0.041367
     43 H15         87.6420    94.7920   107.6370 h1         1 E5L       0.041367
     44 H16         86.3460   103.4020   104.5370 hc         1 E5L       0.037700
     45 H17         85.1650   103.8140   103.3000 hc         1 E5L       0.037700
     46 H18         87.1260   102.9430   102.2080 hc         1 E5L       0.035700
     47 H19         85.8180   101.7920   101.9730 hc         1 E5L       0.035700
     48 H20         86.7660   100.3540   103.8270 hc         1 E5L       0.043200
     49 H21         88.0840   101.5000   104.0360 hc         1 E5L       0.043200
     50 H22         87.5070    99.8830   101.4870 hc         1 E5L       0.032200
     51 H23         88.6820    99.4480   102.7200 hc         1 E5L       0.032200
     52 H24         89.9490   101.5860   102.2530 hc         1 E5L       0.040200
     53 H25         88.8040   101.9570   100.9630 hc         1 E5L       0.040200
     54 H26         89.4650    99.8720    99.7470 hc         1 E5L       0.034700
     55 H27         90.5630    99.4480   101.0540 hc         1 E5L       0.034700
     56 H28         91.8690   100.3720    99.2410 hc         1 E5L       0.037200
     57 H29         91.9360   101.4960   100.5910 hc         1 E5L       0.037200
     58 H30         91.6530   102.6590    98.3750 hc         1 E5L       0.031033
     59 H31         90.1050   101.8240    98.1320 hc         1 E5L       0.031033
     60 H32         90.2890   103.0040    99.4530 hc         1 E5L       0.031033
     61 H33         86.0390    95.9490   106.2830 ha         1 E5L       0.133000
     62 H34         84.4910    96.7780   110.2140 ha         1 E5L       0.133000
     63 H35         84.3740   103.4520   106.1800 hc         1 E5L       0.047700
     64 H36         83.1640   103.6700   104.9290 hc         1 E5L       0.047700
     65 H37         82.6140   103.5270   107.9620 hc         1 E5L       0.040200
     66 H38         81.3370   103.7190   106.7500 hc         1 E5L       0.040200
     67 H39         81.2460   102.3970   107.9320 hc         1 E5L       0.040200
@<TRIPOS>BOND
     1     1     2 1   
     2     1    19 1   
     3     1    29 1   
     4     2     4 ar  
     5     2    15 ar  
     6     3     4 1   
     7     3     7 1   
     8     4    22 ar  
     9     5    20 1   
    10     5    30 1   
    11     5    31 1   
    12     5    32 1   
    13     6    10 1   
    14     6    24 1   
    15     6    33 1   
    16     6    34 1   
    17     7    35 1   
    18     7    36 1   
    19     7    37 1   
    20     8    26 1   
    21     8    38 1   
    22     8    39 1   
    23     8    40 1   
    24     9    27 1   
    25     9    41 1   
    26     9    42 1   
    27     9    43 1   
    28    10    11 1   
    29    10    44 1   
    30    10    45 1   
    31    11    12 1   
    32    11    46 1   
    33    11    47 1   
    34    12    13 1   
    35    12    48 1   
    36    12    49 1   
    37    13    14 1   
    38    13    50 1   
    39    13    51 1   
    40    14    16 1   
    41    14    52 1   
    42    14    53 1   
    43    15    23 ar  
    44    15    26 1   
    45    16    17 1   
    46    16    54 1   
    47    16    55 1   
    48    17    18 1   
    49    17    56 1   
    50    17    57 1   
    51    18    58 1   
    52    18    59 1   
    53    18    60 1   
    54    19    20 1   
    55    19    28 2   
    56    20    24 1   
    57    20    25 1   
    58    21    22 ar  
    59    21    23 ar  
    60    21    27 1   
    61    22    61 1   
    62    23    62 1   
    63    24    63 1   
    64    24    64 1   
    65    25    65 1   
    66    25    66 1   
    67    25    67 1   
@<TRIPOS>SUBSTRUCTURE
     1 E5L         1 TEMP              0 ****  ****    0 ROOT
