@<TRIPOS>MOLECULE
E5L
   67    67     1     0     0
SMALL
abcg2


@<TRIPOS>ATOM
      1 N           83.2960    99.6740   106.6610 ns         1 E5L      -0.149000
      2 C           83.9180    98.5290   107.1920 ca         1 E5L      -0.144000
      3 O           85.1490    98.3340   105.2350 os         1 E5L      -0.341100
      4 C1          84.8800    97.8370   106.4510 ca         1 E5L       0.182600
      5 C10         81.7360   101.6430   105.4540 c3         1 E5L      -0.085100
      6 C11         84.7440   102.0450   104.5920 c3         1 E5L      -0.081400
      7 C12         86.0760    97.6590   104.4070 c3         1 E5L       0.150400
      8 C13         81.3320    98.4150   108.9190 c3         1 E5L       0.150400
      9 C14         86.6900    94.4520   108.1370 c3         1 E5L       0.149900
     10 C15         85.7020   102.9090   103.7790 c3         1 E5L      -0.073400
     11 C16         86.5440   102.1220   102.7770 c3         1 E5L      -0.071400
     12 C17         87.5560   101.1810   103.4250 c3         1 E5L      -0.078400
     13 C18         88.3700   100.3550   102.4330 c3         1 E5L      -0.073400
     14 C19         89.2460   101.1810   101.4970 c3         1 E5L      -0.077400
     15 C2          83.5980    98.0730   108.4700 ca         1 E5L       0.182600
     16 C20         90.1420   100.3180   100.6140 c3         1 E5L      -0.074400
     17 C21         91.0740   101.1160    99.7040 c3         1 E5L      -0.073400
     18 C22         90.3470   101.9470    98.6530 c3         1 E5L      -0.089100
     19 C3          83.5880   100.9230   107.0850 c          1 E5L       0.612100
     20 C4          82.8700   102.0790   106.3850 c3         1 E5L      -0.119000
     21 C5          85.1640    96.2700   108.2560 ca         1 E5L       0.190100
     22 C6          85.4970    96.7000   106.9730 ca         1 E5L      -0.244000
     23 C7          84.2100    96.9540   109.0070 ca         1 E5L      -0.244000
     24 C8          83.9350   102.8630   105.5910 c3         1 E5L      -0.065400
     25 C9          82.2790   102.9900   107.4660 c3         1 E5L      -0.085100
     26 O1          82.6820    98.7460   109.2130 os         1 E5L      -0.341100
     27 O2          85.7160    95.1950   108.8430 os         1 E5L      -0.338100
     28 O3          84.4000   101.1300   107.9720 o          1 E5L      -0.582100
     29 H1          82.6740    99.5540   105.8780 hn         1 E5L       0.155000
     30 H2          80.9630   101.0830   105.9840 hc         1 E5L       0.040200
     31 H3          81.2610   102.5300   105.0330 hc         1 E5L       0.040200
     32 H4          82.0720   101.0420   104.6060 hc         1 E5L       0.040200
     33 H5          84.0770   101.5160   103.9040 hc         1 E5L       0.044700
     34 H6          85.3080   101.2710   105.1180 hc         1 E5L       0.044700
     35 H7          86.1200    98.2180   103.4750 h1         1 E5L       0.038700
     36 H8          87.0770    97.6370   104.8470 h1         1 E5L       0.038700
     37 H9          85.7600    96.6360   104.1910 h1         1 E5L       0.038700
     38 H10         80.7050    99.0280   109.5640 h1         1 E5L       0.038700
     39 H11         81.0760    98.6270   107.8790 h1         1 E5L       0.038700
     40 H12         81.1260    97.3620   109.1250 h1         1 E5L       0.038700
     41 H13         86.9970    93.6430   108.7950 h1         1 E5L       0.041367
     42 H14         86.2870    94.0210   107.2170 h1         1 E5L       0.041367
     43 H15         87.5670    95.0560   107.8910 h1         1 E5L       0.041367
     44 H16         86.3660   103.4540   104.4580 hc         1 E5L       0.037700
     45 H17         85.1250   103.6700   103.2430 hc         1 E5L       0.037700
     46 H18         87.0690   102.8310   102.1310 hc         1 E5L       0.035700
     47 H19         85.8830   101.5470   102.1180 hc         1 E5L       0.035700
     48 H20         87.0390   100.4950   104.1020 hc         1 E5L       0.043200
     49 H21         88.2370   101.7660   104.0550 hc         1 E5L       0.043200
     50 H22         87.6930    99.7300   101.8390 hc         1 E5L       0.032200
     51 H23         89.0070    99.6620   102.9930 hc         1 E5L       0.032200
     52 H24         89.8710   101.8580   102.0910 hc         1 E5L       0.040200
     53 H25         88.6170   101.8180   100.8700 hc         1 E5L       0.040200
     54 H26         89.5190    99.6540   100.0030 hc         1 E5L       0.034700
     55 H27         90.7430    99.6650   101.2540 hc         1 E5L       0.034700
     56 H28         91.7570   100.4260    99.2010 hc         1 E5L       0.037200
     57 H29         91.7030   101.7690   100.3180 hc         1 E5L       0.037200
     58 H30         91.0500   102.4730    98.0080 hc         1 E5L       0.031033
     59 H31         89.7250   101.3140    98.0170 hc         1 E5L       0.031033
     60 H32         89.6960   102.6970    99.1060 hc         1 E5L       0.031033
     61 H33         86.2320    96.1670   106.3880 ha         1 E5L       0.133000
     62 H34         83.9540    96.6170   110.0040 ha         1 E5L       0.133000
     63 H35         84.6200   103.3410   106.2980 hc         1 E5L       0.047700
     64 H36         83.4220   103.6780   105.0670 hc         1 E5L       0.047700
     65 H37         83.0460   103.3620   108.1420 hc         1 E5L       0.040200
     66 H38         81.7940   103.8490   106.9990 hc         1 E5L       0.040200
     67 H39         81.5250   102.4680   108.0610 hc         1 E5L       0.040200
@<TRIPOS>BOND
     1     1     2 1   
     2     1    19 1   
     3     1    29 1   
     4     2     4 ar  
     5     2    15 ar  
     6     3     4 1   
     7     3     7 1   
     8     4    22 ar  
     9     5    20 1   
    10     5    30 1   
    11     5    31 1   
    12     5    32 1   
    13     6    10 1   
    14     6    24 1   
    15     6    33 1   
    16     6    34 1   
    17     7    35 1   
    18     7    36 1   
    19     7    37 1   
    20     8    26 1   
    21     8    38 1   
    22     8    39 1   
    23     8    40 1   
    24     9    27 1   
    25     9    41 1   
    26     9    42 1   
    27     9    43 1   
    28    10    11 1   
    29    10    44 1   
    30    10    45 1   
    31    11    12 1   
    32    11    46 1   
    33    11    47 1   
    34    12    13 1   
    35    12    48 1   
    36    12    49 1   
    37    13    14 1   
    38    13    50 1   
    39    13    51 1   
    40    14    16 1   
    41    14    52 1   
    42    14    53 1   
    43    15    23 ar  
    44    15    26 1   
    45    16    17 1   
    46    16    54 1   
    47    16    55 1   
    48    17    18 1   
    49    17    56 1   
    50    17    57 1   
    51    18    58 1   
    52    18    59 1   
    53    18    60 1   
    54    19    20 1   
    55    19    28 2   
    56    20    24 1   
    57    20    25 1   
    58    21    22 ar  
    59    21    23 ar  
    60    21    27 1   
    61    22    61 1   
    62    23    62 1   
    63    24    63 1   
    64    24    64 1   
    65    25    65 1   
    66    25    66 1   
    67    25    67 1   
@<TRIPOS>SUBSTRUCTURE
     1 E5L         1 TEMP              0 ****  ****    0 ROOT
