@<TRIPOS>MOLECULE
E5M
   39    41     1     0     0
SMALL
bcc


@<TRIPOS>ATOM
      1 C4           2.4730    -0.9770    -0.1610 ca         1 E5M      -0.265000
      2 C14         -4.7010     1.1030     0.3520 ca         1 E5M       0.125900
      3 C5           2.3680     0.3750     0.2410 ca         1 E5M       0.718200
      4 C6           4.8660    -0.8740    -0.1870 c          1 E5M       0.706500
      5 C11         -2.7960    -0.7930    -0.2250 ca         1 E5M      -0.201000
      6 C7           4.7030     0.6450    -0.2170 c6         1 E5M       0.153500
      7 C10          5.9590     1.3140     0.3150 c3         1 E5M      -0.091100
      8 C12         -4.1440    -1.0710    -0.3150 ca         1 E5M       0.125900
      9 C13         -5.1460    -0.1540    -0.0360 ca         1 E5M       0.031100
     10 N2           0.0950    -1.0350    -0.3100 nb         1 E5M      -0.765000
     11 C3           1.2920    -1.6180    -0.4370 ca         1 E5M       0.459200
     12 N3           1.1860     0.9450     0.3810 nb         1 E5M      -0.828000
     13 C1          -2.3910     0.4820     0.1720 ca         1 E5M       0.205600
     14 C2           0.1010     0.2130     0.1140 ca         1 E5M       0.930900
     15 N4           3.7230    -1.6010    -0.1790 n          1 E5M      -0.352000
     16 N5           3.5010     1.0660     0.5040 nh         1 E5M      -0.758300
     17 O1           5.9680    -1.3880    -0.2190 o          1 E5M      -0.612500
     18 C15         -3.3720     1.4370     0.4610 ca         1 E5M      -0.201000
     19 O2          -6.4380    -0.5160    -0.1510 oh         1 E5M      -0.469100
     20 F2          -4.5230    -2.3000    -0.6960 f          1 E5M      -0.135900
     21 H1          -2.0770    -1.5620    -0.4590 ha         1 E5M       0.173000
     22 H2           4.5970     0.9190    -1.2800 h1         1 E5M       0.060700
     23 H9           6.0980     1.1180     1.3780 hc         1 E5M       0.056367
     24 H10          6.8270     0.9380    -0.2200 hc         1 E5M       0.056367
     25 H11          5.9270     2.3900     0.1580 hc         1 E5M       0.056367
     26 H13          1.2810    -2.6510    -0.7630 h4         1 E5M       0.030100
     27 H14         -3.1020     2.4380     0.7740 ha         1 E5M       0.173000
     28 H15         -7.0200     0.2100     0.0970 ho         1 E5M       0.437000
     29 C8           3.7740    -3.0510    -0.2340 c3         1 E5M       0.082300
     30 C9           3.3970     2.4620     0.8840 c3         1 E5M       0.202100
     31 N1          -1.0730     0.8860     0.3090 nu         1 E5M      -0.734300
     32 F1          -5.6340     2.0290     0.6360 f          1 E5M      -0.135900
     33 H3           4.7800    -3.3870    -0.0140 h1         1 E5M       0.053033
     34 H4           3.0940    -3.4720     0.5050 h1         1 E5M       0.053033
     35 H5           3.4920    -3.4200    -1.2210 h1         1 E5M       0.053033
     36 H6           3.3970     3.1240     0.0130 h1         1 E5M       0.049700
     37 H7           2.4760     2.6190     1.4340 h1         1 E5M       0.049700
     38 H8           4.2270     2.7360     1.5290 h1         1 E5M       0.049700
     39 H12         -0.9390     1.8360     0.6200 hn         1 E5M       0.456800
@<TRIPOS>BOND
     1     1     3 ar  
     2     1    11 ar  
     3     1    15 1   
     4     2     9 ar  
     5     2    18 ar  
     6     2    32 1   
     7     3    12 ar  
     8     3    16 1   
     9     4     6 1   
    10     4    15 1   
    11     4    17 2   
    12     5     8 ar  
    13     5    13 ar  
    14     5    21 1   
    15     6     7 1   
    16     6    16 1   
    17     6    22 1   
    18     7    23 1   
    19     7    24 1   
    20     7    25 1   
    21     8     9 ar  
    22     8    20 1   
    23     9    19 1   
    24    10    11 ar  
    25    10    14 ar  
    26    11    26 1   
    27    12    14 ar  
    28    13    18 ar  
    29    13    31 1   
    30    14    31 1   
    31    15    29 1   
    32    16    30 1   
    33    18    27 1   
    34    19    28 1   
    35    29    33 1   
    36    29    34 1   
    37    29    35 1   
    38    30    36 1   
    39    30    37 1   
    40    30    38 1   
    41    31    39 1   
@<TRIPOS>SUBSTRUCTURE
     1 E5M         1 TEMP              0 ****  ****    0 ROOT
