@<TRIPOS>MOLECULE
E5M
   39    41     1     0     0
SMALL
No Charge or Current Charge


@<TRIPOS>ATOM
      1 C4           2.4650    -1.0520     0.0980 ca         1 E5M      -0.227000
      2 C14         -4.8100     0.8910     0.7250 ca         1 E5M       0.161000
      3 C5           2.3530     0.3480     0.2770 ca         1 E5M       0.389900
      4 C6           4.9480    -0.9250    -0.2160 c          1 E5M       0.564000
      5 C11         -2.8750    -0.4970    -0.7470 ca         1 E5M      -0.183000
      6 C7           4.7610     0.6310    -0.3130 c6         1 E5M       0.153500
      7 C10          6.0600     1.3640     0.1560 c3         1 E5M      -0.091100
      8 C12         -4.2340    -0.8050    -0.9090 ca         1 E5M       0.161000
      9 C13         -5.2200    -0.1170    -0.1710 ca         1 E5M       0.031100
     10 N2           0.0600    -1.1460    -0.0240 nb         1 E5M      -0.239000
     11 C3           1.2570    -1.7540    -0.1060 ca         1 E5M       0.130900
     12 N3           1.1520     0.9510     0.3600 nb         1 E5M      -0.302000
     13 C1          -2.4760     0.4990     0.1600 ca         1 E5M       0.344000
     14 C2           0.0720     0.1760     0.2100 ca         1 E5M       0.404900
     15 N4           3.7560    -1.6860    -0.0890 n          1 E5M      -0.192400
     16 N5           3.5110     1.1660     0.3450 nh         1 E5M      -0.758300
     17 O1           6.0570    -1.4560    -0.2530 o          1 E5M      -0.537000
     18 C15         -3.4510     1.1990     0.8850 ca         1 E5M      -0.183000
     19 O2          -6.5550    -0.4170    -0.3280 oh         1 E5M      -0.508100
     20 F2          -4.5890    -1.7690    -1.7910 f          1 E5M      -0.171000
     21 H1          -2.1440    -1.0250    -1.3470 ha         1 E5M       0.155000
     22 H2           4.6690     0.8180    -1.3930 h1         1 E5M       0.060700
     23 H9           6.2180     1.2420     1.2340 hc         1 E5M       0.056367
     24 H10          6.9470     0.9750    -0.3580 hc         1 E5M       0.056367
     25 H11          6.0260     2.4370    -0.0670 hc         1 E5M       0.056367
     26 H13          1.2340    -2.8180    -0.3300 h4         1 E5M       0.030100
     27 H14         -3.1600     1.9770     1.5830 ha         1 E5M       0.155000
     28 H15         -7.0830     0.1650     0.2630 ho         1 E5M       0.476000
     29 C8           3.8560    -3.1630     0.0230 c3         1 E5M       0.082300
     30 C9           3.4340     2.6190     0.6800 c3         1 E5M       0.202100
     31 N1          -1.1350     0.8460     0.3420 nu         1 E5M      -0.927900
     32 F1          -5.7320     1.5750     1.4430 f          1 E5M      -0.171000
     33 H3           4.8510    -3.4730     0.3660 h1         1 E5M       0.053033
     34 H4           3.1230    -3.5350     0.7490 h1         1 E5M       0.053033
     35 H5           3.6580    -3.6180    -0.9550 h1         1 E5M       0.053033
     36 H6           3.4970     3.2280    -0.2310 h1         1 E5M       0.049700
     37 H7           2.5020     2.8730     1.2000 h1         1 E5M       0.049700
     38 H8           4.2480     2.9080     1.3560 h1         1 E5M       0.049700
     39 H12         -1.0050     1.7800     0.7290 hn         1 E5M       0.512000
@<TRIPOS>BOND
     1     1     3 ar  
     2     1    11 ar  
     3     1    15 1   
     4     2     9 ar  
     5     2    18 ar  
     6     2    32 1   
     7     3    12 ar  
     8     3    16 1   
     9     4     6 1   
    10     4    15 1   
    11     4    17 2   
    12     5     8 ar  
    13     5    13 ar  
    14     5    21 1   
    15     6     7 1   
    16     6    16 1   
    17     6    22 1   
    18     7    23 1   
    19     7    24 1   
    20     7    25 1   
    21     8     9 ar  
    22     8    20 1   
    23     9    19 1   
    24    10    11 ar  
    25    10    14 ar  
    26    11    26 1   
    27    12    14 ar  
    28    13    18 ar  
    29    13    31 1   
    30    14    31 1   
    31    15    29 1   
    32    16    30 1   
    33    18    27 1   
    34    19    28 1   
    35    29    33 1   
    36    29    34 1   
    37    29    35 1   
    38    30    36 1   
    39    30    37 1   
    40    30    38 1   
    41    31    39 1   
@<TRIPOS>SUBSTRUCTURE
     1 E5M         1 TEMP              0 ****  ****    0 ROOT
