@<TRIPOS>MOLECULE
E5N
   18    17     1     0     0
SMALL
bcc


@<TRIPOS>ATOM
      1 O42         -3.7500    -0.5310     0.3010 o          1 E5N      -0.871800
      2 O41         -2.6850     1.3510    -0.2200 o          1 E5N      -0.871800
      3 C4          -2.7180     0.1430     0.0880 c          1 E5N       0.920600
      4 C41         -1.3830    -0.6110     0.2280 c3         1 E5N      -0.198400
      5 C32         -0.1240     0.2030    -0.0340 c3         1 E5N      -0.038400
      6 C3           2.4390     0.3290     0.1340 c          1 E5N       0.924600
      7 O31          2.2950     1.5390    -0.1340 o          1 E5N      -0.865800
      8 O32          3.5300    -0.2460     0.3390 o          1 E5N      -0.865800
      9 C22          1.3290    -1.7780    -0.6790 c3         1 E5N      -0.054100
     10 C31          1.1730    -0.5570     0.2300 c3         1 E5N      -0.188700
     11 H2          -1.3420    -1.0390     1.2380 hc         1 E5N       0.002200
     12 H3          -1.4280    -1.4780    -0.4380 hc         1 E5N       0.002200
     13 H4          -0.1290     0.5660    -1.0660 hc         1 E5N       0.042700
     14 H5          -0.1430     1.0950     0.5940 hc         1 E5N       0.042700
     15 H7           2.2520    -2.3110    -0.4610 hc         1 E5N       0.002367
     16 H8           0.5050    -2.4830    -0.5600 hc         1 E5N       0.002367
     17 H9           1.3540    -1.4800    -1.7310 hc         1 E5N       0.002367
     18 H10          1.1400    -0.9310     1.2640 hc         1 E5N       0.012700
@<TRIPOS>BOND
     1     1     3 1   
     2     2     3 1   
     3     3     4 1   
     4     4     5 1   
     5     4    11 1   
     6     4    12 1   
     7     5    10 1   
     8     5    13 1   
     9     5    14 1   
    10     6     7 1   
    11     6     8 1   
    12     6    10 1   
    13     9    10 1   
    14     9    15 1   
    15     9    16 1   
    16     9    17 1   
    17    10    18 1   
@<TRIPOS>SUBSTRUCTURE
     1 E5N         1 TEMP              0 ****  ****    0 ROOT
