@<TRIPOS>MOLECULE
E5N
   18    17     1     0     0
SMALL
No Charge or Current Charge


@<TRIPOS>ATOM
      1 O42         -3.1020     0.5970     1.2590 o          1 E5N      -0.766500
      2 O41         -3.1790     0.5220    -0.8890 o          1 E5N      -0.766500
      3 C4          -2.6890     0.1950     0.1820 c          1 E5N       0.710000
      4 C41         -1.4520    -0.7250     0.1690 c3         1 E5N      -0.198400
      5 C32         -0.1570     0.1270     0.0930 c3         1 E5N      -0.038400
      6 C3           2.3800     0.2640     0.3840 c          1 E5N       0.714000
      7 O31          2.6490     1.0510    -0.5120 o          1 E5N      -0.760500
      8 O32          3.0240     0.1910     1.4210 o          1 E5N      -0.760500
      9 C22          1.3930    -1.6580    -0.9750 c3         1 E5N      -0.054100
     10 C31          1.1660    -0.6840     0.2090 c3         1 E5N      -0.188700
     11 H2          -1.3860    -1.2910     1.1070 hc         1 E5N       0.002200
     12 H3          -1.4580    -1.3560    -0.7280 hc         1 E5N       0.002200
     13 H4          -0.1560     0.7000    -0.8430 hc         1 E5N       0.042700
     14 H5          -0.1800     0.8630     0.9070 hc         1 E5N       0.042700
     15 H7           2.3600    -2.1650    -0.8710 hc         1 E5N       0.002367
     16 H8           0.6160    -2.4300    -1.0060 hc         1 E5N       0.002367
     17 H9           1.3880    -1.1230    -1.9320 hc         1 E5N       0.002367
     18 H10          1.0960    -1.2970     1.1170 hc         1 E5N       0.012700
@<TRIPOS>BOND
     1     1     3 1   
     2     2     3 1   
     3     3     4 1   
     4     4     5 1   
     5     4    11 1   
     6     4    12 1   
     7     5    10 1   
     8     5    13 1   
     9     5    14 1   
    10     6     7 1   
    11     6     8 1   
    12     6    10 1   
    13     9    10 1   
    14     9    15 1   
    15     9    16 1   
    16     9    17 1   
    17    10    18 1   
@<TRIPOS>SUBSTRUCTURE
     1 E5N         1 TEMP              0 ****  ****    0 ROOT
