@<TRIPOS>MOLECULE
E5P
   98   102     1     0     0
SMALL
No Charge or Current Charge


@<TRIPOS>ATOM
      1 C3          31.5320     6.0790    14.5440 c3         1 E5P       0.072700
      2 C5          32.2620     7.3130    15.1440 c3         1 E5P      -0.094400
      3 C8          31.3980     8.6090    15.2220 c3         1 E5P      -0.059700
      4 C10         32.0010     9.6370    16.2200 c3         1 E5P      -0.072400
      5 C13         31.0620    10.8060    16.6290 c3         1 E5P      -0.069400
      6 C16         29.6680    10.3970    17.1800 c3         1 E5P      -0.076400
      7 C19         29.7040     9.3770    18.3440 c3         1 E5P      -0.098400
      8 C22         28.2960     9.0450    18.9000 c3         1 E5P       0.105000
      9 C26         27.2100     6.8670    19.4570 c          1 E5P       0.608700
     10 C27         27.0170     6.4440    18.0170 ca         1 E5P      -0.152600
     11 C28         28.1010     6.3320    17.1220 ca         1 E5P      -0.053000
     12 C30         27.8960     5.9050    15.7870 ca         1 E5P      -0.169600
     13 C31         26.5860     5.6020    15.3610 ca         1 E5P      -0.017000
     14 C33         25.4930     5.6830    16.2510 ca         1 E5P      -0.144500
     15 C34         25.7240     6.0930    17.5790 ca         1 E5P      -0.010000
     16 C36         24.1350     5.3460    15.8070 cc         1 E5P       0.493500
     17 C38         22.0420     4.9840    15.6700 cd         1 E5P       0.230900
     18 C40         22.6040     4.7200    14.4480 cc         1 E5P       0.095900
     19 C43         29.0330     5.7890    14.7960 c          1 E5P       0.617700
     20 C46         28.6120     7.9410    21.2140 c3         1 E5P       0.160000
     21 C48         29.5340     9.1170    21.6180 c3         1 E5P      -0.099100
     22 C52         29.2610     6.6410    21.6940 ca         1 E5P      -0.083300
     23 C53         28.7870     5.9900    22.8510 ca         1 E5P      -0.099500
     24 C55         29.3850     4.7960    23.2900 ca         1 E5P      -0.110000
     25 C57         30.4620     4.2440    22.5760 ca         1 E5P      -0.108000
     26 C59         30.9420     4.8870    21.4230 ca         1 E5P      -0.110000
     27 C61         30.3440     6.0810    20.9840 ca         1 E5P      -0.099500
     28 C63         31.1430     9.2240    13.8230 c3         1 E5P      -0.090100
     29 C67         32.4240     4.8040    14.4720 c3         1 E5P       0.171300
     30 C71         31.6820     3.5610    13.9080 c3         1 E5P       0.156800
     31 C76         32.0890     1.3830    12.7270 c3         1 E5P       0.214100
     32 C79         31.4170     1.8250    11.4300 ca         1 E5P      -0.090300
     33 C80         32.1720     2.4570    10.4220 ca         1 E5P      -0.083000
     34 C82         31.5640     2.8840     9.2230 ca         1 E5P      -0.078300
     35 C83         30.1830     2.6670     9.0400 ca         1 E5P      -0.109000
     36 C85         29.4250     2.0360    10.0410 ca         1 E5P      -0.114000
     37 C87         30.0390     1.6170    11.2320 ca         1 E5P      -0.116000
     38 C89         32.3820     3.5820     8.1340 c3         1 E5P      -0.013400
     39 C91         32.9620     4.9230     8.6360 c3         1 E5P      -0.086100
     40 C95         33.4850     2.6570     7.5720 c3         1 E5P      -0.086100
     41 N1          30.3050     5.8330    15.3210 ns         1 E5P      -0.506900
     42 N25         28.2040     7.8340    19.7730 n          1 E5P      -0.406800
     43 N37         23.0330     5.3870    16.5430 nd         1 E5P      -0.671000
     44 N74         32.6640     2.5280    13.4610 n7         1 E5P      -0.861400
     45 O42         23.9420     4.9450    14.5170 os         1 E5P      -0.251000
     46 O44         28.8410     5.6960    13.5920 o          1 E5P      -0.590100
     47 O45         26.5470     6.3280    20.3340 o          1 E5P      -0.579100
     48 O69         33.5630     5.0140    13.6300 oh         1 E5P      -0.641000
     49 H1          31.2500     6.3270    13.5120 h1         1 E5P       0.098700
     50 H2          32.5980     7.0430    16.1530 hc         1 E5P       0.044700
     51 H3          33.1700     7.5250    14.5660 hc         1 E5P       0.044700
     52 H4          30.4200     8.3260    15.6190 hc         1 E5P       0.045700
     53 H5          32.3070     9.1150    17.1350 hc         1 E5P       0.037200
     54 H6          32.9220    10.0540    15.7940 hc         1 E5P       0.037200
     55 H7          31.5760    11.4040    17.3930 hc         1 E5P       0.042200
     56 H8          30.9200    11.4740    15.7710 hc         1 E5P       0.042200
     57 H9          29.1550    11.3050    17.5220 hc         1 E5P       0.042200
     58 H10         29.0560     9.9960    16.3630 hc         1 E5P       0.042200
     59 H11         30.1820     8.4510    18.0100 hc         1 E5P       0.045200
     60 H12         30.3400     9.7880    19.1330 hc         1 E5P       0.045200
     61 H13         27.9120     9.9140    19.4490 h1         1 E5P       0.052200
     62 H14         27.6200     8.9170    18.0450 h1         1 E5P       0.052200
     63 H15         29.0980     6.5630    17.4820 ha         1 E5P       0.120000
     64 H16         26.4210     5.2850    14.3330 ha         1 E5P       0.149000
     65 H17         24.8900     6.1580    18.2760 ha         1 E5P       0.155000
     66 H18         21.0020     4.9080    15.9630 h4         1 E5P       0.051100
     67 H19         22.1850     4.3850    13.5100 h4         1 E5P       0.068100
     68 H20         27.6860     8.0850    21.7870 h1         1 E5P       0.073700
     69 H21         29.6590     9.1290    22.7070 hc         1 E5P       0.045033
     70 H22         30.5320     9.0080    21.1810 hc         1 E5P       0.045033
     71 H23         29.1130    10.0860    21.3310 hc         1 E5P       0.045033
     72 H24         27.9520     6.4070    23.4100 ha         1 E5P       0.109500
     73 H25         29.0130     4.2980    24.1830 ha         1 E5P       0.110000
     74 H26         30.9250     3.3200    22.9160 ha         1 E5P       0.112000
     75 H27         31.7760     4.4610    20.8690 ha         1 E5P       0.110000
     76 H28         30.7220     6.5730    20.0900 ha         1 E5P       0.109500
     77 H29         30.4780    10.0920    13.8900 hc         1 E5P       0.038367
     78 H30         32.0840     9.5470    13.3620 hc         1 E5P       0.038367
     79 H31         30.6650     8.4990    13.1550 hc         1 E5P       0.038367
     80 H32         32.7660     4.5590    15.4860 h1         1 E5P       0.023700
     81 H33         31.0630     3.8910    13.0620 h1         1 E5P       0.053200
     82 H34         31.0040     3.1590    14.6730 h1         1 E5P       0.053200
     83 H35         31.3600     0.8560    13.3570 h1         1 E5P       0.035700
     84 H36         32.8810     0.6630    12.4790 h1         1 E5P       0.035700
     85 H37         33.2350     2.6210    10.5810 ha         1 E5P       0.143000
     86 H38         29.6940     2.9890     8.1240 ha         1 E5P       0.108000
     87 H39         28.3600     1.8740     9.8930 ha         1 E5P       0.109000
     88 H40         29.4420     1.1340    12.0030 ha         1 E5P       0.105000
     89 H41         31.7190     3.8230     7.2940 hc         1 E5P       0.043700
     90 H42         32.1600     5.5720     9.0090 hc         1 E5P       0.035367
     91 H43         33.6810     4.7650     9.4490 hc         1 E5P       0.035367
     92 H44         33.4760     5.4500     7.8240 hc         1 E5P       0.035367
     93 H45         33.0490     1.7210     7.2030 hc         1 E5P       0.035367
     94 H46         34.0070     3.1410     6.7380 hc         1 E5P       0.035367
     95 H47         34.2260     2.4110     8.3420 hc         1 E5P       0.035367
     96 H48         30.3730     5.8630    16.3300 hn         1 E5P       0.310500
     97 H49         33.1340     2.1530    14.2960 hn         1 E5P       0.408000
     98 H51         33.6550     4.1270    13.1990 ho         1 E5P       0.439000
@<TRIPOS>BOND
     1     1     2 1   
     2     1    29 1   
     3     1    41 1   
     4     1    49 1   
     5     2     3 1   
     6     2    50 1   
     7     2    51 1   
     8     3     4 1   
     9     3    28 1   
    10     3    52 1   
    11     4     5 1   
    12     4    53 1   
    13     4    54 1   
    14     5     6 1   
    15     5    55 1   
    16     5    56 1   
    17     6     7 1   
    18     6    57 1   
    19     6    58 1   
    20     7     8 1   
    21     7    59 1   
    22     7    60 1   
    23     8    42 1   
    24     8    61 1   
    25     8    62 1   
    26     9    10 1   
    27     9    42 1   
    28     9    47 2   
    29    10    11 ar  
    30    10    15 ar  
    31    11    12 ar  
    32    11    63 1   
    33    12    13 ar  
    34    12    19 1   
    35    13    14 ar  
    36    13    64 1   
    37    14    15 ar  
    38    14    16 1   
    39    15    65 1   
    40    16    43 2   
    41    16    45 1   
    42    17    18 2   
    43    17    43 1   
    44    17    66 1   
    45    18    45 1   
    46    18    67 1   
    47    19    41 1   
    48    19    46 2   
    49    20    21 1   
    50    20    22 1   
    51    20    42 1   
    52    20    68 1   
    53    21    69 1   
    54    21    70 1   
    55    21    71 1   
    56    22    23 ar  
    57    22    27 ar  
    58    23    24 ar  
    59    23    72 1   
    60    24    25 ar  
    61    24    73 1   
    62    25    26 ar  
    63    25    74 1   
    64    26    27 ar  
    65    26    75 1   
    66    27    76 1   
    67    28    77 1   
    68    28    78 1   
    69    28    79 1   
    70    29    30 1   
    71    29    48 1   
    72    29    80 1   
    73    30    44 1   
    74    30    81 1   
    75    30    82 1   
    76    31    32 1   
    77    31    44 1   
    78    31    83 1   
    79    31    84 1   
    80    32    33 ar  
    81    32    37 ar  
    82    33    34 ar  
    83    33    85 1   
    84    34    35 ar  
    85    34    38 1   
    86    35    36 ar  
    87    35    86 1   
    88    36    37 ar  
    89    36    87 1   
    90    37    88 1   
    91    38    39 1   
    92    38    40 1   
    93    38    89 1   
    94    39    90 1   
    95    39    91 1   
    96    39    92 1   
    97    40    93 1   
    98    40    94 1   
    99    40    95 1   
   100    41    96 1   
   101    44    97 1   
   102    48    98 1   
@<TRIPOS>SUBSTRUCTURE
     1 E5P         1 TEMP              0 ****  ****    0 ROOT
