@<TRIPOS>MOLECULE
E5P
   98   102     1     0     0
SMALL
abcg2


@<TRIPOS>ATOM
      1 C3          30.7110     5.7640    14.1320 c3         1 E5P       0.072700
      2 C5          31.6600     6.7780    14.7810 c3         1 E5P      -0.094400
      3 C8          31.0100     8.1280    15.1000 c3         1 E5P      -0.059700
      4 C10         31.8740     8.9160    16.0870 c3         1 E5P      -0.072400
      5 C13         31.2300    10.1940    16.6270 c3         1 E5P      -0.069400
      6 C16         29.8460     9.9990    17.2490 c3         1 E5P      -0.076400
      7 C19         29.8130     8.9650    18.3670 c3         1 E5P      -0.098400
      8 C22         28.4180     8.8450    18.9710 c3         1 E5P       0.105000
      9 C26         27.5110     6.6650    19.7110 c          1 E5P       0.608700
     10 C27         27.0240     6.3910    18.3180 ca         1 E5P      -0.152600
     11 C28         27.8960     6.2650    17.2430 ca         1 E5P      -0.053000
     12 C30         27.4180     5.9420    15.9780 ca         1 E5P      -0.169600
     13 C31         26.0570     5.7450    15.7880 ca         1 E5P      -0.017000
     14 C33         25.1830     5.8290    16.8670 ca         1 E5P      -0.144500
     15 C34         25.6730     6.1470    18.1330 ca         1 E5P      -0.010000
     16 C36         23.7540     5.5960    16.7070 cc         1 E5P       0.493500
     17 C38         21.6680     5.3610    16.9550 cd         1 E5P       0.230900
     18 C40         21.9490     5.1030    15.6610 cc         1 E5P       0.095900
     19 C43         28.3240     5.9180    14.7840 c          1 E5P       0.617700
     20 C46         28.6960     7.9370    21.3410 c3         1 E5P       0.160000
     21 C48         29.1140     9.3610    21.6940 c3         1 E5P      -0.099100
     22 C52         29.8020     6.9640    21.6990 ca         1 E5P      -0.083300
     23 C53         29.9090     6.5270    23.0170 ca         1 E5P      -0.099500
     24 C55         30.9390     5.6860    23.4100 ca         1 E5P      -0.110000
     25 C57         31.8830     5.2610    22.4830 ca         1 E5P      -0.108000
     26 C59         31.7810     5.6840    21.1650 ca         1 E5P      -0.110000
     27 C61         30.7480     6.5290    20.7780 ca         1 E5P      -0.099500
     28 C63         30.7300     8.9330    13.8350 c3         1 E5P      -0.090100
     29 C67         31.3910     4.4180    13.8120 c3         1 E5P       0.171300
     30 C71         30.4950     3.5580    12.9340 c3         1 E5P       0.156800
     31 C76         30.3910     1.4510    11.7390 c3         1 E5P       0.214100
     32 C79         30.9050     1.8320    10.3690 ca         1 E5P      -0.090300
     33 C80         32.0890     2.5400    10.2090 ca         1 E5P      -0.083000
     34 C82         32.5720     2.8840     8.9470 ca         1 E5P      -0.078300
     35 C83         31.8520     2.4830     7.8270 ca         1 E5P      -0.109000
     36 C85         30.6680     1.7670     7.9700 ca         1 E5P      -0.114000
     37 C87         30.1920     1.4500     9.2320 ca         1 E5P      -0.116000
     38 C89         33.8340     3.7050     8.8110 c3         1 E5P      -0.013400
     39 C91         33.6260     5.1090     9.3810 c3         1 E5P      -0.086100
     40 C95         35.0340     3.0200     9.4650 c3         1 E5P      -0.086100
     41 N1          29.5880     5.5300    15.0220 ns         1 E5P      -0.506900
     42 N25         28.2440     7.7770    19.9510 n          1 E5P      -0.406800
     43 N37         22.8350     5.6740    17.6100 nd         1 E5P      -0.671000
     44 N74         31.0070     2.2070    12.8070 n7         1 E5P      -0.861400
     45 O42         23.2850     5.2530    15.5020 os         1 E5P      -0.251000
     46 O44         27.9100     6.2630    13.6880 o          1 E5P      -0.590100
     47 O45         27.2230     5.8650    20.5900 o          1 E5P      -0.579100
     48 O69         32.6090     4.6060    13.1300 oh         1 E5P      -0.641000
     49 H1          30.3080     6.1760    13.2040 h1         1 E5P       0.098700
     50 H2          32.0560     6.3400    15.7060 hc         1 E5P       0.044700
     51 H3          32.5170     6.9470    14.1240 hc         1 E5P       0.044700
     52 H4          30.0500     7.9320    15.5900 hc         1 E5P       0.045700
     53 H5          32.1340     8.2660    16.9290 hc         1 E5P       0.037200
     54 H6          32.8240     9.1730    15.6070 hc         1 E5P       0.037200
     55 H7          31.8990    10.6300    17.3740 hc         1 E5P       0.042200
     56 H8          31.1500    10.9380    15.8300 hc         1 E5P       0.042200
     57 H9          29.5000    10.9620    17.6380 hc         1 E5P       0.042200
     58 H10         29.1250     9.7160    16.4750 hc         1 E5P       0.042200
     59 H11         30.1340     7.9940    17.9790 hc         1 E5P       0.045200
     60 H12         30.5440     9.2290    19.1360 hc         1 E5P       0.045200
     61 H13         28.1440     9.7940    19.4330 h1         1 E5P       0.052200
     62 H14         27.6890     8.7000    18.1750 h1         1 E5P       0.052200
     63 H15         28.9520     6.4380    17.3990 ha         1 E5P       0.120000
     64 H16         25.6910     5.5160    14.7960 ha         1 E5P       0.149000
     65 H17         24.9880     6.2160    18.9670 ha         1 E5P       0.155000
     66 H18         20.7120     5.3430    17.4530 h4         1 E5P       0.051100
     67 H19         21.3680     4.8230    14.7990 h4         1 E5P       0.068100
     68 H20         27.8420     7.7020    21.9810 h1         1 E5P       0.073700
     69 H21         29.3610     9.3880    22.7550 hc         1 E5P       0.045033
     70 H22         29.9950     9.6950    21.1500 hc         1 E5P       0.045033
     71 H23         28.3060    10.0750    21.5340 hc         1 E5P       0.045033
     72 H24         29.1720     6.8450    23.7460 ha         1 E5P       0.109500
     73 H25         31.0010     5.3560    24.4390 ha         1 E5P       0.110000
     74 H26         32.6880     4.6030    22.7840 ha         1 E5P       0.112000
     75 H27         32.5050     5.3550    20.4310 ha         1 E5P       0.110000
     76 H28         30.6820     6.8410    19.7440 ha         1 E5P       0.109500
     77 H29         30.1910     9.8540    14.0590 hc         1 E5P       0.038367
     78 H30         31.6640     9.2110    13.3400 hc         1 E5P       0.038367
     79 H31         30.1270     8.3740    13.1190 hc         1 E5P       0.038367
     80 H32         31.5640     3.8960    14.7670 h1         1 E5P       0.023700
     81 H33         30.4550     4.0160    11.9420 h1         1 E5P       0.053200
     82 H34         29.4680     3.5770    13.3230 h1         1 E5P       0.053200
     83 H35         29.2920     1.5260    11.7330 h1         1 E5P       0.035700
     84 H36         30.6140     0.3930    11.9080 h1         1 E5P       0.035700
     85 H37         32.6270     2.8530    11.0960 ha         1 E5P       0.143000
     86 H38         32.2120     2.7360     6.8360 ha         1 E5P       0.108000
     87 H39         30.1110     1.4660     7.0910 ha         1 E5P       0.109000
     88 H40         29.2620     0.9040     9.3380 ha         1 E5P       0.105000
     89 H41         34.0500     3.8050     7.7420 hc         1 E5P       0.043700
     90 H42         32.8080     5.6230     8.8760 hc         1 E5P       0.035367
     91 H43         33.3870     5.0710    10.4460 hc         1 E5P       0.035367
     92 H44         34.5260     5.7140     9.2610 hc         1 E5P       0.035367
     93 H45         35.2040     2.0280     9.0460 hc         1 E5P       0.035367
     94 H46         35.9410     3.6080     9.3120 hc         1 E5P       0.035367
     95 H47         34.8920     2.9100    10.5410 hc         1 E5P       0.035367
     96 H48         29.8140     5.1740    15.9380 hn         1 E5P       0.310500
     97 H49         30.8630     1.7130    13.6790 hn         1 E5P       0.408000
     98 H51         33.2870     4.8560    13.7640 ho         1 E5P       0.439000
@<TRIPOS>BOND
     1     1     2 1   
     2     1    29 1   
     3     1    41 1   
     4     1    49 1   
     5     2     3 1   
     6     2    50 1   
     7     2    51 1   
     8     3     4 1   
     9     3    28 1   
    10     3    52 1   
    11     4     5 1   
    12     4    53 1   
    13     4    54 1   
    14     5     6 1   
    15     5    55 1   
    16     5    56 1   
    17     6     7 1   
    18     6    57 1   
    19     6    58 1   
    20     7     8 1   
    21     7    59 1   
    22     7    60 1   
    23     8    42 1   
    24     8    61 1   
    25     8    62 1   
    26     9    10 1   
    27     9    42 1   
    28     9    47 2   
    29    10    11 ar  
    30    10    15 ar  
    31    11    12 ar  
    32    11    63 1   
    33    12    13 ar  
    34    12    19 1   
    35    13    14 ar  
    36    13    64 1   
    37    14    15 ar  
    38    14    16 1   
    39    15    65 1   
    40    16    43 2   
    41    16    45 1   
    42    17    18 2   
    43    17    43 1   
    44    17    66 1   
    45    18    45 1   
    46    18    67 1   
    47    19    41 1   
    48    19    46 2   
    49    20    21 1   
    50    20    22 1   
    51    20    42 1   
    52    20    68 1   
    53    21    69 1   
    54    21    70 1   
    55    21    71 1   
    56    22    23 ar  
    57    22    27 ar  
    58    23    24 ar  
    59    23    72 1   
    60    24    25 ar  
    61    24    73 1   
    62    25    26 ar  
    63    25    74 1   
    64    26    27 ar  
    65    26    75 1   
    66    27    76 1   
    67    28    77 1   
    68    28    78 1   
    69    28    79 1   
    70    29    30 1   
    71    29    48 1   
    72    29    80 1   
    73    30    44 1   
    74    30    81 1   
    75    30    82 1   
    76    31    32 1   
    77    31    44 1   
    78    31    83 1   
    79    31    84 1   
    80    32    33 ar  
    81    32    37 ar  
    82    33    34 ar  
    83    33    85 1   
    84    34    35 ar  
    85    34    38 1   
    86    35    36 ar  
    87    35    86 1   
    88    36    37 ar  
    89    36    87 1   
    90    37    88 1   
    91    38    39 1   
    92    38    40 1   
    93    38    89 1   
    94    39    90 1   
    95    39    91 1   
    96    39    92 1   
    97    40    93 1   
    98    40    94 1   
    99    40    95 1   
   100    41    96 1   
   101    44    97 1   
   102    48    98 1   
@<TRIPOS>SUBSTRUCTURE
     1 E5P         1 TEMP              0 ****  ****    0 ROOT
