@<TRIPOS>MOLECULE
E5Q
   38    40     1     0     0
SMALL
bcc


@<TRIPOS>ATOM
      1 C4           4.5870     1.2630     0.4230 c3         1 E5Q      -0.140400
      2 C14         -3.9160     0.2390    -0.2630 ca         1 E5Q       0.414200
      3 C6           1.4050     0.4960     0.0920 ca         1 E5Q       0.050000
      4 C11          1.3990     1.7060    -0.6000 ca         1 E5Q      -0.217000
      5 C7           0.2720     0.1130     0.8060 ca         1 E5Q      -0.147000
      6 C8          -0.8630     0.9140     0.8150 ca         1 E5Q      -0.074300
      7 C9          -0.8620     2.1210     0.1310 ca         1 E5Q      -0.157000
      8 C10          0.2720     2.5210    -0.5700 ca         1 E5Q       0.147100
      9 C12         -2.1100     0.4160     1.5210 c3         1 E5Q       0.250700
     10 C13         -2.9430    -0.3680     0.5240 ca         1 E5Q      -0.229600
     11 N1           3.8570    -2.2080    -0.1630 nc         1 E5Q      -0.363300
     12 N2          -4.6330    -0.4020    -1.1770 nb         1 E5Q      -0.663000
     13 C3           2.6290    -1.7790    -0.1540 cd         1 E5Q       0.358600
     14 O1           4.6480    -1.1170     0.0510 os         1 E5Q      -0.115100
     15 C1           3.8960    -0.0230     0.1780 cc         1 E5Q       0.316000
     16 C2           2.5850    -0.3680     0.0570 cd         1 E5Q      -0.317600
     17 O2           0.2200     3.7000    -1.2170 oh         1 E5Q      -0.492100
     18 O3          -2.8310     1.4200     2.1840 oh         1 E5Q      -0.576800
     19 C15         -4.4100    -1.6990    -1.3510 ca         1 E5Q       0.405200
     20 C16         -3.4690    -2.4070    -0.6180 ca         1 E5Q      -0.245300
     21 C17         -2.7270    -1.7260     0.3330 ca         1 E5Q      -0.082000
     22 H1           5.4610     1.1230     1.0580 hc         1 E5Q       0.065033
     23 H2           4.9220     1.7170    -0.5110 hc         1 E5Q       0.065033
     24 H3           3.9160     1.9660     0.9140 hc         1 E5Q       0.065033
     25 H5           1.0150    -2.9630     0.5920 hc         1 E5Q       0.057367
     26 H6           0.7300    -2.2670    -0.9970 hc         1 E5Q       0.057367
     27 H7           1.8280    -3.6430    -0.8150 hc         1 E5Q       0.057367
     28 H8           2.2630     2.0040    -1.1830 ha         1 E5Q       0.134000
     29 H9           0.2810    -0.8090     1.3740 ha         1 E5Q       0.136000
     30 H10         -1.7300     2.7720     0.1120 ha         1 E5Q       0.143000
     31 H11         -1.7970    -0.2780     2.3060 h1         1 E5Q       0.086700
     32 H12          1.0460     3.8650    -1.6850 ho         1 E5Q       0.428000
     33 H13         -3.0960     2.1120     1.5710 ho         1 E5Q       0.407000
     34 H14         -5.0070    -2.2000    -2.1040 h4         1 E5Q       0.021100
     35 H15         -3.3250    -3.4650    -0.7890 ha         1 E5Q       0.143000
     36 H16         -1.9870    -2.2530     0.9250 ha         1 E5Q       0.134000
     37 C5           1.4900    -2.7150    -0.3580 c3         1 E5Q      -0.134400
     38 H4          -4.1360     1.2960    -0.1600 h4         1 E5Q       0.014100
@<TRIPOS>BOND
     1     1    15 1   
     2     1    22 1   
     3     1    23 1   
     4     1    24 1   
     5     2    10 ar  
     6     2    12 ar  
     7     2    38 1   
     8     3     4 ar  
     9     3     5 ar  
    10     3    16 1   
    11     4     8 ar  
    12     4    28 1   
    13     5     6 ar  
    14     5    29 1   
    15     6     7 ar  
    16     6     9 1   
    17     7     8 ar  
    18     7    30 1   
    19     8    17 1   
    20     9    10 1   
    21     9    18 1   
    22     9    31 1   
    23    10    21 ar  
    24    11    13 2   
    25    11    14 1   
    26    12    19 ar  
    27    13    16 1   
    28    13    37 1   
    29    14    15 1   
    30    15    16 2   
    31    17    32 1   
    32    18    33 1   
    33    19    20 ar  
    34    19    34 1   
    35    20    21 ar  
    36    20    35 1   
    37    21    36 1   
    38    25    37 1   
    39    26    37 1   
    40    27    37 1   
@<TRIPOS>SUBSTRUCTURE
     1 E5Q         1 TEMP              0 ****  ****    0 ROOT
