@<TRIPOS>MOLECULE
E5Q
   38    40     1     0     0
SMALL
No Charge or Current Charge


@<TRIPOS>ATOM
      1 C4           4.5940     1.0640     0.3560 c3         1 E5Q      -0.140400
      2 C14         -2.7620    -0.5600    -0.9330 ca         1 E5Q       0.348900
      3 C6           1.3170     0.6990     0.1250 ca         1 E5Q       0.050000
      4 C11          1.5340     2.0850    -0.0250 ca         1 E5Q      -0.199000
      5 C7           0.0480     0.2660     0.5620 ca         1 E5Q      -0.129000
      6 C8          -1.0010     1.1730     0.8220 ca         1 E5Q      -0.074300
      7 C9          -0.7500     2.5540     0.6690 ca         1 E5Q      -0.139000
      8 C10          0.5080     3.0010     0.2480 ca         1 E5Q       0.147100
      9 C12         -2.3630     0.6290     1.2900 c3         1 E5Q       0.273900
     10 C13         -2.8100    -0.5810     0.4760 ca         1 E5Q      -0.164300
     11 N1           3.4050    -2.1890    -0.9260 nc         1 E5Q      -0.363300
     12 N2          -3.1280    -1.6090    -1.7060 nb         1 E5Q      -0.663000
     13 C3           2.2490    -1.5910    -0.7060 cd         1 E5Q       0.293300
     14 O1           4.3870    -1.2210    -0.5370 os         1 E5Q      -0.070700
     15 C1           3.7450    -0.0810    -0.1250 cc         1 E5Q       0.206300
     16 C2           2.3890    -0.2840    -0.1630 cd         1 E5Q      -0.187000
     17 O2           0.7290     4.3370     0.0960 oh         1 E5Q      -0.531100
     18 O3          -3.3920     1.6220     1.2340 oh         1 E5Q      -0.639000
     19 C15         -3.5580    -2.7300    -1.0830 ca         1 E5Q       0.339900
     20 C16         -3.6390    -2.8420     0.3150 ca         1 E5Q      -0.162000
     21 C17         -3.2600    -1.7520     1.1140 ca         1 E5Q      -0.064000
     22 H1           5.5720     0.7060     0.6970 hc         1 E5Q       0.065033
     23 H2           4.7640     1.7880    -0.4490 hc         1 E5Q       0.065033
     24 H3           4.1190     1.5800     1.1980 hc         1 E5Q       0.065033
     25 H5           0.5260    -2.8050    -0.2400 hc         1 E5Q       0.057367
     26 H6           0.2520    -1.6140    -1.5310 hc         1 E5Q       0.057367
     27 H7           1.1800    -3.0770    -1.8590 hc         1 E5Q       0.057367
     28 H8           2.4860     2.4550    -0.3870 ha         1 E5Q       0.116000
     29 H9          -0.1250    -0.7900     0.7380 ha         1 E5Q       0.118000
     30 H10         -1.5210     3.2900     0.8800 ha         1 E5Q       0.125000
     31 H11         -2.2310     0.3060     2.3330 h1         1 E5Q       0.086700
     32 H12          1.6540     4.4670    -0.2020 ho         1 E5Q       0.467000
     33 H13         -3.4540     1.9080     0.2990 ho         1 E5Q       0.446000
     34 H14         -3.8470    -3.5620    -1.7240 h4         1 E5Q       0.021100
     35 H15         -3.9920    -3.7650     0.7660 ha         1 E5Q       0.125000
     36 H16         -3.3130    -1.8180     2.1990 ha         1 E5Q       0.116000
     37 C5           0.9830    -2.3080    -1.1030 c3         1 E5Q      -0.134400
     38 H4          -2.4160     0.3250    -1.4660 h4         1 E5Q       0.014100
@<TRIPOS>BOND
     1     1    15 1   
     2     1    22 1   
     3     1    23 1   
     4     1    24 1   
     5     2    10 ar  
     6     2    12 ar  
     7     2    38 1   
     8     3     4 ar  
     9     3     5 ar  
    10     3    16 1   
    11     4     8 ar  
    12     4    28 1   
    13     5     6 ar  
    14     5    29 1   
    15     6     7 ar  
    16     6     9 1   
    17     7     8 ar  
    18     7    30 1   
    19     8    17 1   
    20     9    10 1   
    21     9    18 1   
    22     9    31 1   
    23    10    21 ar  
    24    11    13 2   
    25    11    14 1   
    26    12    19 ar  
    27    13    16 1   
    28    13    37 1   
    29    14    15 1   
    30    15    16 2   
    31    17    32 1   
    32    18    33 1   
    33    19    20 ar  
    34    19    34 1   
    35    20    21 ar  
    36    20    35 1   
    37    21    36 1   
    38    25    37 1   
    39    26    37 1   
    40    27    37 1   
@<TRIPOS>SUBSTRUCTURE
     1 E5Q         1 TEMP              0 ****  ****    0 ROOT
