@<TRIPOS>MOLECULE
E5R
   42    44     1     0     0
SMALL
No Charge or Current Charge


@<TRIPOS>ATOM
      1 N           -4.9550    16.8870    26.7370 n3         1 E5R      -0.712600
      2 C          -10.2230    16.5410    22.8000 ca         1 E5R       0.267100
      3 O          -10.1430    15.4150    22.0440 oh         1 E5R      -0.534100
      4 C1         -11.4340    17.2390    22.8300 ca         1 E5R      -0.223000
      5 C10         -3.2770    15.3820    28.6670 c6         1 E5R      -0.072400
      6 C11         -4.6450    14.8400    28.1820 c6         1 E5R      -0.064700
      7 C12         -5.3080    13.9290    29.2490 c3         1 E5R      -0.087100
      8 C13         -5.5800    16.0100    27.7710 c6         1 E5R       0.171800
      9 C14         -9.1130    17.0020    23.5360 ca         1 E5R      -0.354600
     10 C15         -7.7910    16.2740    23.5020 c          1 E5R       0.697700
     11 C2         -11.5510    18.4100    23.5810 ca         1 E5R       0.217100
     12 C3         -10.4550    18.8890    24.3070 ca         1 E5R      -0.264000
     13 C4          -9.2380    18.1870    24.2870 ca         1 E5R       0.045700
     14 C5          -8.0440    18.6980    25.0710 c6         1 E5R      -0.081100
     15 C6          -7.1880    17.5090    25.5380 c6         1 E5R       0.188300
     16 C7          -5.8640    17.9630    26.2420 c3         1 E5R       0.179800
     17 C8          -3.6560    17.4390    27.2120 c6         1 E5R       0.175800
     18 C9          -2.6650    16.3160    27.6000 c6         1 E5R      -0.075400
     19 O2          -6.8520    16.6580    24.4220 os         1 E5R      -0.403100
     20 O3          -7.5640    15.3920    22.6840 o          1 E5R      -0.553000
     21 H2          -9.1970    15.1280    22.0760 ho         1 E5R       0.520000
     22 H3         -12.2840    16.8730    22.2630 ha         1 E5R       0.151000
     23 H4          -2.5890    14.5510    28.8750 hc         1 E5R       0.038700
     24 H5          -3.4040    15.9320    29.6100 hc         1 E5R       0.038700
     25 H6          -4.4780    14.2090    27.2970 hc         1 E5R       0.066700
     26 H7          -4.6580    13.0830    29.5060 hc         1 E5R       0.033367
     27 H8          -5.5170    14.4820    30.1720 hc         1 E5R       0.033367
     28 H9          -6.2560    13.5180    28.8830 hc         1 E5R       0.033367
     29 H10         -5.8330    16.6020    28.6640 h1         1 E5R       0.026200
     30 H11         -6.5160    15.5780    27.3920 h1         1 E5R       0.026200
     31 H12        -10.5400    19.8030    24.8880 ha         1 E5R       0.119000
     32 H13         -7.4500    19.3730    24.4420 hc         1 E5R       0.071200
     33 H14         -8.3760    19.2800    25.9420 hc         1 E5R       0.071200
     34 H15         -7.7850    16.9210    26.2480 h1         1 E5R       0.058700
     35 H16         -5.3210    18.5910    25.5230 h1         1 E5R       0.042200
     36 H17         -6.1430    18.6170    27.0800 h1         1 E5R       0.042200
     37 H18         -3.1950    18.0560    26.4260 h1         1 E5R       0.028700
     38 H19         -3.8170    18.0920    28.0830 h1         1 E5R       0.028700
     39 H20         -2.4000    15.7370    26.7050 hc         1 E5R       0.050200
     40 H21         -1.7320    16.7570    27.9760 hc         1 E5R       0.050200
     41 H22        -12.6180    19.8730    24.1730 ho         1 E5R       0.472000
     42 O1         -12.7300    19.0860    23.6000 oh         1 E5R      -0.521100
@<TRIPOS>BOND
     1     1     8 1   
     2     1    16 1   
     3     1    17 1   
     4     2     3 1   
     5     2     4 ar  
     6     2     9 ar  
     7     3    21 1   
     8     4    11 ar  
     9     4    22 1   
    10     5     6 1   
    11     5    18 1   
    12     5    23 1   
    13     5    24 1   
    14     6     7 1   
    15     6     8 1   
    16     6    25 1   
    17     7    26 1   
    18     7    27 1   
    19     7    28 1   
    20     8    29 1   
    21     8    30 1   
    22     9    10 1   
    23     9    13 ar  
    24    10    19 1   
    25    10    20 2   
    26    11    12 ar  
    27    11    42 1   
    28    12    13 ar  
    29    12    31 1   
    30    13    14 1   
    31    14    15 1   
    32    14    32 1   
    33    14    33 1   
    34    15    16 1   
    35    15    19 1   
    36    15    34 1   
    37    16    35 1   
    38    16    36 1   
    39    17    18 1   
    40    17    37 1   
    41    17    38 1   
    42    18    39 1   
    43    18    40 1   
    44    41    42 1   
@<TRIPOS>SUBSTRUCTURE
     1 E5R         1 TEMP              0 ****  ****    0 ROOT
