@<TRIPOS>MOLECULE
E5R
   42    44     1     0     0
SMALL
abcg2


@<TRIPOS>ATOM
      1 N           -5.0980    16.8980    26.7900 n3         1 E5R      -0.712600
      2 C           -9.9780    16.5640    22.7550 ca         1 E5R       0.267100
      3 O           -9.7870    15.5170    21.9580 oh         1 E5R      -0.534100
      4 C1         -11.2260    17.1720    22.7510 ca         1 E5R      -0.223000
      5 C10         -3.3320    15.2730    28.4100 c6         1 E5R      -0.072400
      6 C11         -4.7940    14.8930    28.1950 c6         1 E5R      -0.064700
      7 C12         -5.3620    14.1260    29.3800 c3         1 E5R      -0.087100
      8 C13         -5.6140    16.1500    27.9230 c6         1 E5R       0.171800
      9 C14         -8.9600    17.0600    23.5990 ca         1 E5R      -0.354600
     10 C15         -7.6470    16.4330    23.5990 c          1 E5R       0.697700
     11 C2         -11.4570    18.2810    23.5570 ca         1 E5R       0.217100
     12 C3         -10.4460    18.7970    24.3780 ca         1 E5R      -0.264000
     13 C4          -9.2120    18.1860    24.3960 ca         1 E5R       0.045700
     14 C5          -8.0850    18.6980    25.2410 c6         1 E5R      -0.081100
     15 C6          -7.2010    17.5440    25.6620 c6         1 E5R       0.188300
     16 C7          -5.9560    17.9950    26.4020 c3         1 E5R       0.179800
     17 C8          -3.7320    17.3270    27.0320 c6         1 E5R       0.175800
     18 C9          -2.8230    16.1300    27.2590 c6         1 E5R      -0.075400
     19 O2          -6.7610    16.8060    24.5060 os         1 E5R      -0.403100
     20 O3          -7.3130    15.5820    22.7860 o          1 E5R      -0.553000
     21 H2          -8.8420    15.2570    22.0260 ho         1 E5R       0.520000
     22 H3         -12.0130    16.7880    22.1140 ha         1 E5R       0.151000
     23 H4          -2.7190    14.3750    28.5240 hc         1 E5R       0.038700
     24 H5          -3.2470    15.8340    29.3470 hc         1 E5R       0.038700
     25 H6          -4.8580    14.2620    27.3000 hc         1 E5R       0.066700
     26 H7          -4.7860    13.2200    29.5770 hc         1 E5R       0.033367
     27 H8          -5.3400    14.7340    30.2870 hc         1 E5R       0.033367
     28 H9          -6.3970    13.8290    29.2050 hc         1 E5R       0.033367
     29 H10         -5.6290    16.7730    28.8380 h1         1 E5R       0.026200
     30 H11         -6.6500    15.8590    27.7300 h1         1 E5R       0.026200
     31 H12        -10.6330    19.6640    25.0010 ha         1 E5R       0.119000
     32 H13         -7.5010    19.4340    24.6770 hc         1 E5R       0.071200
     33 H14         -8.4670    19.2060    26.1270 hc         1 E5R       0.071200
     34 H15         -7.7900    16.8590    26.2820 h1         1 E5R       0.058700
     35 H16         -5.3940    18.6630    25.7420 h1         1 E5R       0.042200
     36 H17         -6.2810    18.6070    27.2600 h1         1 E5R       0.042200
     37 H18         -3.3850    17.8950    26.1650 h1         1 E5R       0.028700
     38 H19         -3.6670    18.0020    27.9040 h1         1 E5R       0.028700
     39 H20         -2.7840    15.5340    26.3420 hc         1 E5R       0.050200
     40 H21         -1.8070    16.4800    27.4560 hc         1 E5R       0.050200
     41 H22        -12.7340    19.5910    24.0930 ho         1 E5R       0.472000
     42 O1         -12.6770    18.8240    23.5110 oh         1 E5R      -0.521100
@<TRIPOS>BOND
     1     1     8 1   
     2     1    16 1   
     3     1    17 1   
     4     2     3 1   
     5     2     4 ar  
     6     2     9 ar  
     7     3    21 1   
     8     4    11 ar  
     9     4    22 1   
    10     5     6 1   
    11     5    18 1   
    12     5    23 1   
    13     5    24 1   
    14     6     7 1   
    15     6     8 1   
    16     6    25 1   
    17     7    26 1   
    18     7    27 1   
    19     7    28 1   
    20     8    29 1   
    21     8    30 1   
    22     9    10 1   
    23     9    13 ar  
    24    10    19 1   
    25    10    20 2   
    26    11    12 ar  
    27    11    42 1   
    28    12    13 ar  
    29    12    31 1   
    30    13    14 1   
    31    14    15 1   
    32    14    32 1   
    33    14    33 1   
    34    15    16 1   
    35    15    19 1   
    36    15    34 1   
    37    16    35 1   
    38    16    36 1   
    39    17    18 1   
    40    17    37 1   
    41    17    38 1   
    42    18    39 1   
    43    18    40 1   
    44    41    42 1   
@<TRIPOS>SUBSTRUCTURE
     1 E5R         1 TEMP              0 ****  ****    0 ROOT
