@<TRIPOS>MOLECULE
E5S
   63    67     1     0     0
SMALL
No Charge or Current Charge


@<TRIPOS>ATOM
      1 CAO         -5.2480     1.7010    -1.4670 c6         1 E5S       0.147300
      2 CAM         -4.5600     0.3030    -1.5730 c6         1 E5S      -0.105400
      3 CBB         -4.7710    -0.4920    -0.2440 c6         1 E5S      -0.049700
      4 CAN         -6.3150    -0.6270    -0.0630 c6         1 E5S      -0.105400
      5 CAP         -6.9640     0.7920     0.0210 c6         1 E5S       0.147300
      6 NBD         -5.9300     1.8610    -0.1440 n3         1 E5S      -0.678600
      7 CAT         -4.9110     1.7470     0.9590 c6         1 E5S       0.123800
      8 CBF         -4.1910     0.3380     0.9570 c6         1 E5S       0.244100
      9 OAC         -4.4190    -0.3500     2.1910 oh         1 E5S      -0.647000
     10 CAE         -2.7220     0.4820     0.8670 c1         1 E5S      -0.180100
     11 CAD         -1.5180     0.6090     0.7740 cg         1 E5S      -0.072000
     12 CAX         -0.0920     0.7560     0.6760 ca         1 E5S      -0.097000
     13 CAK          0.5860     1.4970     1.6560 ca         1 E5S      -0.008000
     14 CAL          1.9760     1.6290     1.5470 ca         1 E5S      -0.246000
     15 CAY          2.6430     1.0210     0.4720 ca         1 E5S       0.651900
     16 NBE          4.0330     1.1140     0.2990 nh         1 E5S      -0.786300
     17 CAS          4.7750     0.5570    -0.8720 c5         1 E5S       0.207800
     18 CAR          4.9700     1.7160     1.2960 c5         1 E5S       0.188800
     19 CBA          6.3750     1.1820     0.8390 c5         1 E5S       0.161300
     20 OAB          6.6380    -0.1540     1.3360 oh         1 E5S      -0.686000
     21 CBC          6.1600     1.2530    -0.7090 c5         1 E5S       0.155300
     22 OAV          7.2170     0.5240    -1.3960 os         1 E5S      -0.420000
     23 CAA          7.1530     0.4730    -2.8320 c3         1 E5S       0.140900
     24 NAU          2.0050     0.3150    -0.4720 nb         1 E5S      -0.767000
     25 CAZ          0.6620     0.1770    -0.3770 ca         1 E5S       0.442300
     26 CAQ          0.0140    -0.6480    -1.4920 c3         1 E5S      -0.085400
     27 CAW         -0.5700    -1.9770    -1.0120 ca         1 E5S      -0.082300
     28 CAI          0.1330    -2.7830    -0.0930 ca         1 E5S      -0.098000
     29 CAG         -0.4170    -3.9990     0.3500 ca         1 E5S      -0.113000
     30 CAF         -1.6690    -4.4200    -0.1260 ca         1 E5S      -0.109000
     31 CAH         -2.3690    -3.6280    -1.0510 ca         1 E5S      -0.113000
     32 CAJ         -1.8200    -2.4130    -1.4940 ca         1 E5S      -0.098000
     33 H1          -4.4910     2.4880    -1.6050 h1         1 E5S       0.054950
     34 H2          -5.9720     1.8130    -2.2890 h1         1 E5S       0.054950
     35 H3          -4.9840    -0.2560    -2.4180 hc         1 E5S       0.051950
     36 H4          -3.4920     0.4260    -1.7980 hc         1 E5S       0.051950
     37 H5          -4.3030    -1.4840    -0.3030 hc         1 E5S       0.069700
     38 H6          -6.7480    -1.1840    -0.9050 hc         1 E5S       0.051950
     39 H7          -6.5560    -1.2050     0.8390 hc         1 E5S       0.051950
     40 H8          -7.7390     0.8830    -0.7540 h1         1 E5S       0.054950
     41 H9          -7.4730     0.9000     0.9910 h1         1 E5S       0.054950
     42 H11         -4.1640     2.5480     0.8560 h1         1 E5S       0.061700
     43 H12         -5.3940     1.9050     1.9340 h1         1 E5S       0.061700
     44 H13         -3.7100    -1.0240     2.2470 ho         1 E5S       0.449000
     45 H14          0.0490     1.9600     2.4820 ha         1 E5S       0.119000
     46 H15          2.5220     2.2010     2.2890 ha         1 E5S       0.122000
     47 H16          4.8600    -0.5370    -0.8120 h1         1 E5S       0.067700
     48 H17          4.3090     0.8240    -1.8310 h1         1 E5S       0.067700
     49 H18          4.9340     2.8140     1.2530 h1         1 E5S       0.051700
     50 H19          4.7420     1.4060     2.3250 h1         1 E5S       0.051700
     51 H20          7.1740     1.8670     1.1570 h1         1 E5S       0.054700
     52 H21          6.7040    -0.0900     2.3150 ho         1 E5S       0.500000
     53 H22          6.1370     2.2930    -1.0630 h1         1 E5S       0.038700
     54 H23          6.2480    -0.0500    -3.1690 h1         1 E5S       0.032367
     55 H24          7.1480     1.4850    -3.2570 h1         1 E5S       0.032367
     56 H25          8.0220    -0.0620    -3.2340 h1         1 E5S       0.032367
     57 H26         -0.7650    -0.0420    -1.9680 hc         1 E5S       0.065200
     58 H27          0.7430    -0.8500    -2.2860 hc         1 E5S       0.065200
     59 H28          1.1060    -2.4710     0.2810 ha         1 E5S       0.117500
     60 H29          0.1290    -4.6140     1.0620 ha         1 E5S       0.111500
     61 H30         -2.0940    -5.3610     0.2170 ha         1 E5S       0.110000
     62 H31         -3.3370    -3.9550    -1.4250 ha         1 E5S       0.111500
     63 H32         -2.3700    -1.8100    -2.2130 ha         1 E5S       0.117500
@<TRIPOS>BOND
     1     1     2 1   
     2     1     6 1   
     3     1    33 1   
     4     1    34 1   
     5     2     3 1   
     6     2    35 1   
     7     2    36 1   
     8     3     4 1   
     9     3     8 1   
    10     3    37 1   
    11     4     5 1   
    12     4    38 1   
    13     4    39 1   
    14     5     6 1   
    15     5    40 1   
    16     5    41 1   
    17     6     7 1   
    18     7     8 1   
    19     7    42 1   
    20     7    43 1   
    21     8     9 1   
    22     8    10 1   
    23     9    44 1   
    24    10    11 3   
    25    11    12 1   
    26    12    13 ar  
    27    12    25 ar  
    28    13    14 ar  
    29    13    45 1   
    30    14    15 ar  
    31    14    46 1   
    32    15    16 1   
    33    15    24 ar  
    34    16    17 1   
    35    16    18 1   
    36    17    21 1   
    37    17    47 1   
    38    17    48 1   
    39    18    19 1   
    40    18    49 1   
    41    18    50 1   
    42    19    20 1   
    43    19    21 1   
    44    19    51 1   
    45    20    52 1   
    46    21    22 1   
    47    21    53 1   
    48    22    23 1   
    49    23    54 1   
    50    23    55 1   
    51    23    56 1   
    52    24    25 ar  
    53    25    26 1   
    54    26    27 1   
    55    26    57 1   
    56    26    58 1   
    57    27    28 ar  
    58    27    32 ar  
    59    28    29 ar  
    60    28    59 1   
    61    29    30 ar  
    62    29    60 1   
    63    30    31 ar  
    64    30    61 1   
    65    31    32 ar  
    66    31    62 1   
    67    32    63 1   
@<TRIPOS>SUBSTRUCTURE
     1 E5S         1 TEMP              0 ****  ****    0 ROOT
