@<TRIPOS>MOLECULE
E5S
   63    67     1     0     0
SMALL
bcc


@<TRIPOS>ATOM
      1 CAO         -4.8910     1.8170    -1.5950 c6         1 E5S       0.147300
      2 CAM         -4.2030     0.4340    -1.4830 c6         1 E5S      -0.105400
      3 CBB         -4.7610    -0.2710    -0.2440 c6         1 E5S      -0.049700
      4 CAN         -6.2860    -0.3200    -0.3720 c6         1 E5S      -0.105400
      5 CAP         -6.8200     1.1280    -0.3630 c6         1 E5S       0.147300
      6 NBD         -5.7270     2.0910    -0.4270 n3         1 E5S      -0.678600
      7 CAT         -4.9190     1.9960     0.7680 c6         1 E5S       0.123800
      8 CBF         -4.3720     0.5350     1.0060 c6         1 E5S       0.220900
      9 OAC         -5.0000    -0.0400     2.1360 oh         1 E5S      -0.584800
     10 CAE         -2.9210     0.5840     1.1850 c1         1 E5S      -0.180100
     11 CAD         -1.7130     0.6360     1.1130 cg         1 E5S      -0.072000
     12 CAX         -0.3020     0.6840     0.9740 ca         1 E5S      -0.162300
     13 CAK          0.4920     1.3390     1.9300 ca         1 E5S      -0.026000
     14 CAL          1.8500     1.4270     1.7800 ca         1 E5S      -0.329300
     15 CAY          2.4260     0.8490     0.6260 ca         1 E5S       0.717200
     16 NBE          3.7490     0.9020     0.3880 nh         1 E5S      -0.786300
     17 CAS          4.3520     0.4080    -0.8340 c5         1 E5S       0.207800
     18 CAR          4.7130     1.5160     1.2820 c5         1 E5S       0.188800
     19 CBA          6.0550     1.0530     0.7300 c5         1 E5S       0.138100
     20 OAB          6.3840    -0.2500     1.1410 oh         1 E5S      -0.563800
     21 CBC          5.7590     1.0170    -0.7640 c5         1 E5S       0.132100
     22 OAV          6.7460     0.3300    -1.4690 os         1 E5S      -0.373600
     23 CAA          6.5940     0.4190    -2.8670 c3         1 E5S       0.117700
     24 NAU          1.6740     0.2270    -0.2870 nb         1 E5S      -0.767000
     25 CAZ          0.3630     0.1450    -0.1310 ca         1 E5S       0.507600
     26 CAQ         -0.3760    -0.6120    -1.2050 c3         1 E5S      -0.085400
     27 CAW         -0.3790    -2.0890    -0.9000 ca         1 E5S      -0.082300
     28 CAI          0.7580    -2.8610    -1.1340 ca         1 E5S      -0.116000
     29 CAG          0.7700    -4.2150    -0.8300 ca         1 E5S      -0.131000
     30 CAF         -0.3540    -4.8200    -0.2810 ca         1 E5S      -0.127000
     31 CAH         -1.4910    -4.0600    -0.0410 ca         1 E5S      -0.131000
     32 CAJ         -1.5020    -2.7040    -0.3480 ca         1 E5S      -0.116000
     33 H1          -4.1490     2.6150    -1.6850 h1         1 E5S       0.054950
     34 H2          -5.5220     1.8690    -2.4850 h1         1 E5S       0.054950
     35 H3          -4.4010    -0.1770    -2.3650 hc         1 E5S       0.051950
     36 H4          -3.1180     0.5400    -1.4100 hc         1 E5S       0.051950
     37 H5          -4.3510    -1.2820    -0.1620 hc         1 E5S       0.069700
     38 H6          -6.5280    -0.8190    -1.3140 hc         1 E5S       0.051950
     39 H7          -6.7390    -0.9160     0.4210 hc         1 E5S       0.051950
     40 H8          -7.4880     1.3030    -1.2080 h1         1 E5S       0.054950
     41 H9          -7.3960     1.3300     0.5440 h1         1 E5S       0.054950
     42 H11         -4.0980     2.7110     0.6880 h1         1 E5S       0.061700
     43 H12         -5.5200     2.2890     1.6360 h1         1 E5S       0.061700
     44 H13         -4.8130     0.5090     2.9040 ho         1 E5S       0.410000
     45 H14          0.0210     1.7810     2.7980 ha         1 E5S       0.137000
     46 H15          2.4450     1.9350     2.5260 ha         1 E5S       0.140000
     47 H16          4.3870    -0.6860    -0.8660 h1         1 E5S       0.067700
     48 H17          3.7980     0.7470    -1.7100 h1         1 E5S       0.067700
     49 H18          4.6440     2.6090     1.2620 h1         1 E5S       0.051700
     50 H19          4.5730     1.2010     2.3200 h1         1 E5S       0.051700
     51 H20          6.8470     1.7690     0.9760 h1         1 E5S       0.054700
     52 H21          6.5240    -0.2360     2.0920 ho         1 E5S       0.401000
     53 H22          5.6940     2.0610    -1.1090 h1         1 E5S       0.038700
     54 H23          5.6950    -0.0930    -3.2250 h1         1 E5S       0.032367
     55 H24          6.5480     1.4600    -3.2070 h1         1 E5S       0.032367
     56 H25          7.4600    -0.0550    -3.3280 h1         1 E5S       0.032367
     57 H26         -1.4030    -0.2570    -1.2910 hc         1 E5S       0.065200
     58 H27          0.1190    -0.4240    -2.1590 hc         1 E5S       0.065200
     59 H28          1.6400    -2.3940    -1.5550 ha         1 E5S       0.135500
     60 H29          1.6590    -4.8010    -1.0240 ha         1 E5S       0.129500
     61 H30         -0.3430    -5.8770    -0.0450 ha         1 E5S       0.128000
     62 H31         -2.3730    -4.5210     0.3870 ha         1 E5S       0.129500
     63 H32         -2.3900    -2.1140    -0.1520 ha         1 E5S       0.135500
@<TRIPOS>BOND
     1     1     2 1   
     2     1     6 1   
     3     1    33 1   
     4     1    34 1   
     5     2     3 1   
     6     2    35 1   
     7     2    36 1   
     8     3     4 1   
     9     3     8 1   
    10     3    37 1   
    11     4     5 1   
    12     4    38 1   
    13     4    39 1   
    14     5     6 1   
    15     5    40 1   
    16     5    41 1   
    17     6     7 1   
    18     7     8 1   
    19     7    42 1   
    20     7    43 1   
    21     8     9 1   
    22     8    10 1   
    23     9    44 1   
    24    10    11 3   
    25    11    12 1   
    26    12    13 ar  
    27    12    25 ar  
    28    13    14 ar  
    29    13    45 1   
    30    14    15 ar  
    31    14    46 1   
    32    15    16 1   
    33    15    24 ar  
    34    16    17 1   
    35    16    18 1   
    36    17    21 1   
    37    17    47 1   
    38    17    48 1   
    39    18    19 1   
    40    18    49 1   
    41    18    50 1   
    42    19    20 1   
    43    19    21 1   
    44    19    51 1   
    45    20    52 1   
    46    21    22 1   
    47    21    53 1   
    48    22    23 1   
    49    23    54 1   
    50    23    55 1   
    51    23    56 1   
    52    24    25 ar  
    53    25    26 1   
    54    26    27 1   
    55    26    57 1   
    56    26    58 1   
    57    27    28 ar  
    58    27    32 ar  
    59    28    29 ar  
    60    28    59 1   
    61    29    30 ar  
    62    29    60 1   
    63    30    31 ar  
    64    30    61 1   
    65    31    32 ar  
    66    31    62 1   
    67    32    63 1   
@<TRIPOS>SUBSTRUCTURE
     1 E5S         1 TEMP              0 ****  ****    0 ROOT
