@<TRIPOS>MOLECULE
E5T
   36    38     1     0     0
SMALL
No Charge or Current Charge


@<TRIPOS>ATOM
      1 C4           3.4170    -0.9190    -2.0710 c3         1 E5T      -0.138400
      2 C14         -4.6950     2.0870    -0.2790 cx         1 E5T      -0.120900
      3 C6           0.8250    -0.3680    -0.0940 ca         1 E5T       0.041000
      4 C11          0.6230    -1.6690    -0.6020 ca         1 E5T      -0.202000
      5 C7          -0.3000     0.3510     0.3650 ca         1 E5T      -0.130000
      6 C8          -1.5950    -0.2030     0.3290 ca         1 E5T      -0.072300
      7 C9          -1.7660    -1.5060    -0.1810 ca         1 E5T      -0.131000
      8 C10         -0.6610    -2.2310    -0.6420 ca         1 E5T       0.140100
      9 C12         -2.7900     0.6160     0.8220 c3         1 E5T       0.246600
     10 C13         -3.8250     0.8500    -0.2750 cx         1 E5T      -0.171700
     11 N1           3.9780     1.4210     0.7290 nc         1 E5T      -0.365300
     12 C3           2.7060     1.1290     0.9250 cd         1 E5T       0.293300
     13 O1           4.3460     0.6610    -0.4270 os         1 E5T      -0.073700
     14 C1           3.2570    -0.0660    -0.8420 cc         1 E5T       0.201300
     15 C2           2.1790     0.2360    -0.0500 cd         1 E5T      -0.182000
     16 O2          -0.8390    -3.4930    -1.1260 oh         1 E5T      -0.533100
     17 O3          -3.4060    -0.0330     1.9360 oh         1 E5T      -0.645000
     18 C15         -3.6130     1.9210    -1.3220 cx         1 E5T      -0.120900
     19 H1           4.2320    -0.5450    -2.7010 hc         1 E5T       0.064033
     20 H2           3.6520    -1.9540    -1.7990 hc         1 E5T       0.064033
     21 H3           2.5020    -0.9140    -2.6750 hc         1 E5T       0.064033
     22 H5          -4.5360     2.8290     0.5010 hc         1 E5T       0.074700
     23 H6           1.4450     2.5980     1.8760 hc         1 E5T       0.057700
     24 H7           1.3350     0.9700     2.5860 hc         1 E5T       0.057700
     25 H8           2.7410     1.9850     2.9100 hc         1 E5T       0.057700
     26 H9           1.4660    -2.2650    -0.9330 ha         1 E5T       0.115000
     27 H10         -0.1820     1.3700     0.7190 ha         1 E5T       0.118000
     28 H11         -2.7530    -1.9580    -0.2250 ha         1 E5T       0.135000
     29 H12         -2.4180     1.5990     1.1440 h1         1 E5T       0.078700
     30 H13         -4.2920    -0.0710    -0.6180 hc         1 E5T       0.082700
     31 H14          0.0340    -3.8460    -1.4000 ho         1 E5T       0.464000
     32 H15         -3.6990    -0.9120     1.6170 ho         1 E5T       0.445000
     33 H16         -3.9200     1.7000    -2.3410 hc         1 E5T       0.074700
     34 H17         -2.7290     2.5490    -1.2400 hc         1 E5T       0.074700
     35 C5           2.0170     1.7010     2.1370 c3         1 E5T      -0.134400
     36 H4          -5.7290     1.9800    -0.5990 hc         1 E5T       0.074700
@<TRIPOS>BOND
     1     1    14 1   
     2     1    19 1   
     3     1    20 1   
     4     1    21 1   
     5     2    10 1   
     6     2    18 1   
     7     2    22 1   
     8     2    36 1   
     9     3     4 ar  
    10     3     5 ar  
    11     3    15 1   
    12     4     8 ar  
    13     4    26 1   
    14     5     6 ar  
    15     5    27 1   
    16     6     7 ar  
    17     6     9 1   
    18     7     8 ar  
    19     7    28 1   
    20     8    16 1   
    21     9    10 1   
    22     9    17 1   
    23     9    29 1   
    24    10    18 1   
    25    10    30 1   
    26    11    12 2   
    27    11    13 1   
    28    12    15 1   
    29    12    35 1   
    30    13    14 1   
    31    14    15 2   
    32    16    31 1   
    33    17    32 1   
    34    18    33 1   
    35    18    34 1   
    36    23    35 1   
    37    24    35 1   
    38    25    35 1   
@<TRIPOS>SUBSTRUCTURE
     1 E5T         1 TEMP              0 ****  ****    0 ROOT
