@<TRIPOS>MOLECULE
E5T
   36    38     1     0     0
SMALL
abcg2


@<TRIPOS>ATOM
      1 C4           2.9830    -0.6940    -2.3810 c3         1 E5T      -0.138400
      2 C14         -4.2710     2.2360    -0.3880 cx         1 E5T      -0.120900
      3 C6           0.7010    -0.5090    -0.0200 ca         1 E5T       0.041000
      4 C11          0.6900    -1.8990    -0.1390 ca         1 E5T      -0.202000
      5 C7          -0.4860     0.1650     0.2440 ca         1 E5T      -0.130000
      6 C8          -1.6840    -0.5320     0.3880 ca         1 E5T      -0.072300
      7 C9          -1.6880    -1.9130     0.2710 ca         1 E5T      -0.131000
      8 C10         -0.5030    -2.5950    -0.0020 ca         1 E5T       0.140100
      9 C12         -2.9650     0.2440     0.6450 c3         1 E5T       0.246600
     10 C13         -3.3120     1.0990    -0.5510 cx         1 E5T      -0.171700
     11 N1           3.6500     1.6440     0.2680 nc         1 E5T      -0.365300
     12 C3           2.5000     1.2210     0.7040 cd         1 E5T       0.293300
     13 O1           3.8960     0.9670    -0.8910 os         1 E5T      -0.073700
     14 C1           2.8940     0.1230    -1.1490 cc         1 E5T       0.201300
     15 C2           1.9580     0.2290    -0.1680 cd         1 E5T      -0.182000
     16 O2          -0.5700    -3.9380    -0.1060 oh         1 E5T      -0.533100
     17 O3          -4.0360    -0.5870     1.0200 oh         1 E5T      -0.645000
     18 C15         -2.8220     2.5100    -0.6470 cx         1 E5T      -0.120900
     19 H1           3.1760    -0.0700    -3.2540 hc         1 E5T       0.064033
     20 H2           3.7890    -1.4270    -2.3110 hc         1 E5T       0.064033
     21 H3           2.0510    -1.2300    -2.5430 hc         1 E5T       0.064033
     22 H5          -4.6520     2.4370     0.6060 hc         1 E5T       0.074700
     23 H6           1.1190     2.4580     1.7680 hc         1 E5T       0.057700
     24 H7           1.4920     0.9360     2.5600 hc         1 E5T       0.057700
     25 H8           2.6770     2.2510     2.5630 hc         1 E5T       0.057700
     26 H9           1.6150    -2.4360    -0.3160 ha         1 E5T       0.115000
     27 H10         -0.4800     1.2450     0.3190 ha         1 E5T       0.118000
     28 H11         -2.6010    -2.4820     0.3950 ha         1 E5T       0.135000
     29 H12         -2.7890     0.9070     1.5010 h1         1 E5T       0.078700
     30 H13         -3.3680     0.5500    -1.4880 hc         1 E5T       0.082700
     31 H14          0.2980    -4.3020    -0.3100 ho         1 E5T       0.464000
     32 H15         -4.4310    -0.9610     0.2260 ho         1 E5T       0.445000
     33 H16         -2.5270     2.8790    -1.6210 hc         1 E5T       0.074700
     34 H17         -2.2320     2.9030     0.1720 hc         1 E5T       0.074700
     35 C5           1.9190     1.7450     1.9680 c3         1 E5T      -0.134400
     36 H4          -4.9830     2.4220    -1.1810 hc         1 E5T       0.074700
@<TRIPOS>BOND
     1     1    14 1   
     2     1    19 1   
     3     1    20 1   
     4     1    21 1   
     5     2    10 1   
     6     2    18 1   
     7     2    22 1   
     8     2    36 1   
     9     3     4 ar  
    10     3     5 ar  
    11     3    15 1   
    12     4     8 ar  
    13     4    26 1   
    14     5     6 ar  
    15     5    27 1   
    16     6     7 ar  
    17     6     9 1   
    18     7     8 ar  
    19     7    28 1   
    20     8    16 1   
    21     9    10 1   
    22     9    17 1   
    23     9    29 1   
    24    10    18 1   
    25    10    30 1   
    26    11    12 2   
    27    11    13 1   
    28    12    15 1   
    29    12    35 1   
    30    13    14 1   
    31    14    15 2   
    32    16    31 1   
    33    17    32 1   
    34    18    33 1   
    35    18    34 1   
    36    23    35 1   
    37    24    35 1   
    38    25    35 1   
@<TRIPOS>SUBSTRUCTURE
     1 E5T         1 TEMP              0 ****  ****    0 ROOT
