@<TRIPOS>MOLECULE
E5U
   13    12     1     0     0
SMALL
bcc


@<TRIPOS>ATOM
      1 C1          -0.5270     1.0560    -0.0350 c          1 E5U       0.941600
      2 C2          -0.0410    -0.3630    -0.4110 c3         1 E5U      -0.125900
      3 O6           1.5020    -1.5630     0.9790 o          1 E5U      -0.867050
      4 C3           1.3380    -0.5810     0.2340 c          1 E5U       0.941600
      5 O7          -0.4960     1.9300    -0.9240 o          1 E5U      -0.867050
      6 O8          -0.7490     1.2390     1.1780 o          1 E5U      -0.867050
      7 O4          -0.9340    -1.3660     0.0080 os         1 E5U      -0.375600
      8 C41         -2.1740    -1.3040    -0.6400 c3         1 E5U       0.147700
      9 H1           0.1000    -0.4210    -1.5030 h1         1 E5U      -0.005300
     10 H4          -2.7570    -0.4140    -0.3680 h1         1 E5U      -0.018300
     11 H5          -2.0750    -1.3150    -1.7330 h1         1 E5U      -0.018300
     12 H6          -2.7520    -2.1820    -0.3440 h1         1 E5U      -0.018300
     13 O5           2.2060     0.2450    -0.1190 o          1 E5U      -0.867050
@<TRIPOS>BOND
     1     1     2 1   
     2     1     5 1   
     3     1     6 1   
     4     2     4 1   
     5     2     7 1   
     6     2     9 1   
     7     3     4 1   
     8     4    13 1   
     9     7     8 1   
    10     8    10 1   
    11     8    11 1   
    12     8    12 1   
@<TRIPOS>SUBSTRUCTURE
     1 E5U         1 TEMP              0 ****  ****    0 ROOT
