@<TRIPOS>MOLECULE
E5U
   13    12     1     0     0
SMALL
No Charge or Current Charge


@<TRIPOS>ATOM
      1 C1          -0.4460     1.0830     0.0710 c          1 E5U       0.731000
      2 C2          -0.0270    -0.3320    -0.3980 c3         1 E5U      -0.102700
      3 O6           1.5780    -1.3420     1.0770 o          1 E5U      -0.761750
      4 C3           1.3980    -0.5350     0.1720 c          1 E5U       0.731000
      5 O7          -0.2370     2.0260    -0.6810 o          1 E5U      -0.761750
      6 O8          -1.0730     1.2090     1.1160 o          1 E5U      -0.761750
      7 O4          -0.9650    -1.3880     0.0140 os         1 E5U      -0.422000
      8 C41         -2.2360    -1.3690    -0.6590 c3         1 E5U       0.170900
      9 H1           0.0540    -0.3260    -1.4950 h1         1 E5U      -0.005300
     10 H4          -2.7640    -0.4250    -0.4770 h1         1 E5U      -0.018300
     11 H5          -2.1010    -1.4900    -1.7420 h1         1 E5U      -0.018300
     12 H6          -2.8670    -2.1910    -0.2980 h1         1 E5U      -0.018300
     13 O5           2.3280     0.0420    -0.3770 o          1 E5U      -0.761750
@<TRIPOS>BOND
     1     1     2 1   
     2     1     5 1   
     3     1     6 1   
     4     2     4 1   
     5     2     7 1   
     6     2     9 1   
     7     3     4 1   
     8     4    13 1   
     9     7     8 1   
    10     8    10 1   
    11     8    11 1   
    12     8    12 1   
@<TRIPOS>SUBSTRUCTURE
     1 E5U         1 TEMP              0 ****  ****    0 ROOT
