@<TRIPOS>MOLECULE
E5W
   43    45     1     0     0
SMALL
No Charge or Current Charge


@<TRIPOS>ATOM
      1 C4          -2.8870    -1.9780     1.7840 c3         1 E5W      -0.134400
      2 C14          3.9590    -1.7270     1.3080 c6         1 E5W      -0.126400
      3 C5          -4.2300     0.2480    -2.6620 c3         1 E5W      -0.140400
      4 C6          -2.1340     0.5670    -0.1260 ca         1 E5W       0.035000
      5 C11         -2.3360     1.8810    -0.6010 ca         1 E5W      -0.140000
      6 C7          -0.9570     0.3010     0.6060 ca         1 E5W      -0.118000
      7 C8          -0.0070     1.3080     0.8630 ca         1 E5W      -0.048300
      8 C9          -0.2340     2.6100     0.3810 ca         1 E5W      -0.204000
      9 C10         -1.3970     2.8910    -0.3480 ca         1 E5W       0.139100
     10 C12          1.2630     0.9780     1.6460 c3         1 E5W       0.216100
     11 C13          3.2060    -0.5170     1.9040 c6         1 E5W       0.168300
     12 N1          -4.4400    -2.3500    -0.0480 nc         1 E5W      -0.367300
     13 N2           2.0870    -0.0850     1.0200 n3         1 E5W      -0.729600
     14 C3          -3.4580    -1.6130     0.4390 cd         1 E5W       0.295300
     15 O1          -4.8080    -1.6950    -1.2660 os         1 E5W      -0.072700
     16 C1          -4.0260    -0.5770    -1.4220 cc         1 E5W       0.205300
     17 C2          -3.1210    -0.5090    -0.3930 cd         1 E5W      -0.184000
     18 O2          -1.6230     4.1520    -0.8090 oh         1 E5W      -0.534100
     19 C15          4.4420    -1.4200    -0.1230 c6         1 E5W       0.180000
     20 C16          3.3040    -0.8920    -1.0190 c6         1 E5W      -0.126400
     21 C17          2.5730     0.2880    -0.3410 c6         1 E5W       0.168300
     22 F1           4.9860    -2.5840    -0.6940 f          1 E5W      -0.124500
     23 F2           5.4850    -0.4760    -0.0780 f          1 E5W      -0.124500
     24 H1          -1.9640    -2.5570     1.6740 hc         1 E5W       0.057700
     25 H2          -2.6690    -1.0830     2.3780 hc         1 E5W       0.057700
     26 H3          -3.5910    -2.5870     2.3650 hc         1 E5W       0.057700
     27 H5           3.2890    -2.5970     1.2920 hc         1 E5W       0.074450
     28 H6          -4.6840    -0.3520    -3.4590 hc         1 E5W       0.065367
     29 H7          -4.8950     1.0960    -2.4630 hc         1 E5W       0.065367
     30 H8          -3.2760     0.6320    -3.0410 hc         1 E5W       0.065367
     31 H9          -3.2380     2.1450    -1.1400 ha         1 E5W       0.130000
     32 H10         -0.7380    -0.7050     0.9480 ha         1 E5W       0.134000
     33 H11          0.4950     3.3930     0.5730 ha         1 E5W       0.112000
     34 H12          1.8620     1.8920     1.7680 h1         1 E5W       0.041200
     35 H13          0.9580     0.6640     2.6530 h1         1 E5W       0.041200
     36 H14          2.8220    -0.7970     2.8960 h1         1 E5W       0.044200
     37 H15          3.9140     0.3120     2.0550 h1         1 E5W       0.044200
     38 H17         -0.8700     4.7200    -0.5370 ho         1 E5W       0.465000
     39 H18          3.7000    -0.5790    -1.9940 hc         1 E5W       0.074450
     40 H19          2.5840    -1.6980    -1.2140 hc         1 E5W       0.074450
     41 H20          1.7350     0.5890    -0.9860 h1         1 E5W       0.044200
     42 H21          3.2550     1.1500    -0.2790 h1         1 E5W       0.044200
     43 H4           4.8090    -1.9940     1.9490 hc         1 E5W       0.074450
@<TRIPOS>BOND
     1     1    14 1   
     2     1    24 1   
     3     1    25 1   
     4     1    26 1   
     5     2    11 1   
     6     2    19 1   
     7     2    27 1   
     8     2    43 1   
     9     3    16 1   
    10     3    28 1   
    11     3    29 1   
    12     3    30 1   
    13     4     5 ar  
    14     4     6 ar  
    15     4    17 1   
    16     5     9 ar  
    17     5    31 1   
    18     6     7 ar  
    19     6    32 1   
    20     7     8 ar  
    21     7    10 1   
    22     8     9 ar  
    23     8    33 1   
    24     9    18 1   
    25    10    13 1   
    26    10    34 1   
    27    10    35 1   
    28    11    13 1   
    29    11    36 1   
    30    11    37 1   
    31    12    14 2   
    32    12    15 1   
    33    13    21 1   
    34    14    17 1   
    35    15    16 1   
    36    16    17 2   
    37    18    38 1   
    38    19    20 1   
    39    19    22 1   
    40    19    23 1   
    41    20    21 1   
    42    20    39 1   
    43    20    40 1   
    44    21    41 1   
    45    21    42 1   
@<TRIPOS>SUBSTRUCTURE
     1 E5W         1 TEMP              0 ****  ****    0 ROOT
