@<TRIPOS>MOLECULE
E5W
   43    45     1     0     0
SMALL
bcc


@<TRIPOS>ATOM
      1 C4          -2.8440    -1.8950     1.8380 c3         1 E5W      -0.134400
      2 C14          3.6980    -1.7680     1.2680 c6         1 E5W      -0.126400
      3 C5          -3.7430     0.0730    -2.7790 c3         1 E5W      -0.140400
      4 C6          -2.0400     0.6430    -0.0310 ca         1 E5W       0.035000
      5 C11         -2.4360     1.9550    -0.2860 ca         1 E5W      -0.158000
      6 C7          -0.7900     0.3970     0.5330 ca         1 E5W      -0.136000
      7 C8           0.0660     1.4500     0.8340 ca         1 E5W      -0.048300
      8 C9          -0.3260     2.7540     0.5630 ca         1 E5W      -0.222000
      9 C10         -1.5760     3.0080     0.0040 ca         1 E5W       0.139100
     10 C12          1.4030     1.1840     1.4800 c3         1 E5W       0.216100
     11 C13          3.1530    -0.4370     1.7720 c6         1 E5W       0.168300
     12 N1          -4.1320    -2.3620    -0.1630 nc         1 E5W      -0.367300
     13 N2           2.0580     0.0150     0.9360 n3         1 E5W      -0.729600
     14 C3          -3.2920    -1.5850     0.4550 cd         1 E5W       0.360600
     15 O1          -4.3480    -1.8000    -1.3890 os         1 E5W      -0.117100
     16 C1          -3.6410    -0.6750    -1.5060 cc         1 E5W       0.315000
     17 C2          -2.9360    -0.4680    -0.3600 cd         1 E5W      -0.314600
     18 O2          -2.0030     4.2570    -0.2720 oh         1 E5W      -0.495100
     19 C15          4.0980    -1.6610    -0.1820 c6         1 E5W       0.422600
     20 C16          2.9980    -1.0830    -1.0370 c6         1 E5W      -0.126400
     21 C17          2.4860     0.2180    -0.4360 c6         1 E5W       0.168300
     22 F1           4.4820    -2.8870    -0.6600 f          1 E5W      -0.245800
     23 F2           5.2200    -0.8710    -0.2890 f          1 E5W      -0.245800
     24 H1          -1.8010    -2.2110     1.8520 hc         1 E5W       0.057700
     25 H2          -2.9250    -1.0150     2.4750 hc         1 E5W       0.057700
     26 H3          -3.4450    -2.6940     2.2690 hc         1 E5W       0.057700
     27 H5           2.9220    -2.5310     1.3560 hc         1 E5W       0.074450
     28 H6          -3.7080    -0.6000    -3.6350 hc         1 E5W       0.065367
     29 H7          -4.6780     0.6340    -2.8340 hc         1 E5W       0.065367
     30 H8          -2.9230     0.7820    -2.8660 hc         1 E5W       0.065367
     31 H9          -3.4160     2.1670    -0.6960 ha         1 E5W       0.148000
     32 H10         -0.4600    -0.6180     0.7130 ha         1 E5W       0.152000
     33 H11          0.3470     3.5770     0.7820 ha         1 E5W       0.130000
     34 H12          2.0320     2.0870     1.4110 h1         1 E5W       0.041200
     35 H13          1.2400     1.0100     2.5490 h1         1 E5W       0.041200
     36 H14          2.7850    -0.5720     2.7910 h1         1 E5W       0.044200
     37 H15          3.9660     0.3060     1.8280 h1         1 E5W       0.044200
     38 H17         -1.3310     4.9030    -0.0280 ho         1 E5W       0.426000
     39 H18          3.3550    -0.9170    -2.0560 hc         1 E5W       0.074450
     40 H19          2.1800    -1.8050    -1.0830 hc         1 E5W       0.074450
     41 H20          1.6390     0.5660    -1.0290 h1         1 E5W       0.044200
     42 H21          3.2610     1.0010    -0.5090 h1         1 E5W       0.044200
     43 H4           4.5490    -2.0850     1.8760 hc         1 E5W       0.074450
@<TRIPOS>BOND
     1     1    14 1   
     2     1    24 1   
     3     1    25 1   
     4     1    26 1   
     5     2    11 1   
     6     2    19 1   
     7     2    27 1   
     8     2    43 1   
     9     3    16 1   
    10     3    28 1   
    11     3    29 1   
    12     3    30 1   
    13     4     5 ar  
    14     4     6 ar  
    15     4    17 1   
    16     5     9 ar  
    17     5    31 1   
    18     6     7 ar  
    19     6    32 1   
    20     7     8 ar  
    21     7    10 1   
    22     8     9 ar  
    23     8    33 1   
    24     9    18 1   
    25    10    13 1   
    26    10    34 1   
    27    10    35 1   
    28    11    13 1   
    29    11    36 1   
    30    11    37 1   
    31    12    14 2   
    32    12    15 1   
    33    13    21 1   
    34    14    17 1   
    35    15    16 1   
    36    16    17 2   
    37    18    38 1   
    38    19    20 1   
    39    19    22 1   
    40    19    23 1   
    41    20    21 1   
    42    20    39 1   
    43    20    40 1   
    44    21    41 1   
    45    21    42 1   
@<TRIPOS>SUBSTRUCTURE
     1 E5W         1 TEMP              0 ****  ****    0 ROOT
