@<TRIPOS>MOLECULE
E5X
   18    18     1     0     0
SMALL
bcc


@<TRIPOS>ATOM
      1 CAD          3.0710    60.2670     7.4190 ca         1 E5X      -0.127300
      2 CAE          2.0510    57.9990     8.7530 ca         1 E5X      -0.127600
      3 CAF          2.9970    59.0350     6.7750 ca         1 E5X      -0.146000
      4 CAG          2.6180    60.3510     8.7330 ca         1 E5X      -0.146000
      5 CAH          2.4890    57.9230     7.4340 ca         1 E5X      -0.111000
      6 CAI          2.1240    59.2350     9.3910 ca         1 E5X      -0.111000
      7 CAJ          3.6670    61.4790     6.7590 c3         1 E5X       0.194700
      8 CAK          1.5100    56.7700     9.4770 c          1 E5X       0.923200
      9 OAA          3.5100    61.4010     5.3640 oh         1 E5X      -0.591800
     10 OAB          1.2150    56.9160    10.6790 o          1 E5X      -0.827300
     11 OAC          1.4130    55.7260     8.8030 o          1 E5X      -0.827300
     12 H1           3.3360    58.9340     5.7520 ha         1 E5X       0.107000
     13 H2           2.6520    61.3040     9.2510 ha         1 E5X       0.107000
     14 H3           2.4370    56.9760     6.9120 ha         1 E5X       0.142500
     15 H4           1.7830    59.3280    10.4140 ha         1 E5X       0.142500
     16 H5           4.7290    61.5370     7.0350 h1         1 E5X       0.007200
     17 H6           3.1950    62.3790     7.1730 h1         1 E5X       0.007200
     18 H7           4.0390    62.0970     4.9640 ho         1 E5X       0.384000
@<TRIPOS>BOND
     1     1     3 ar  
     2     1     4 ar  
     3     1     7 1   
     4     2     5 ar  
     5     2     6 ar  
     6     2     8 1   
     7     3     5 ar  
     8     3    12 1   
     9     4     6 ar  
    10     4    13 1   
    11     5    14 1   
    12     6    15 1   
    13     7     9 1   
    14     7    16 1   
    15     7    17 1   
    16     8    10 1   
    17     8    11 1   
    18     9    18 1   
@<TRIPOS>SUBSTRUCTURE
     1 E5X         1 TEMP              0 ****  ****    0 ROOT
