@<TRIPOS>MOLECULE
E5X
   18    18     1     0     0
SMALL
No Charge or Current Charge


@<TRIPOS>ATOM
      1 CAD          3.1970    60.1940     7.3990 ca         1 E5X      -0.127300
      2 CAE          2.0270    57.9860     8.7600 ca         1 E5X      -0.127600
      3 CAF          3.3010    58.8940     6.8710 ca         1 E5X      -0.128000
      4 CAG          2.5060    60.3870     8.6100 ca         1 E5X      -0.128000
      5 CAH          2.7230    57.8020     7.5420 ca         1 E5X      -0.093000
      6 CAI          1.9280    59.2970     9.2840 ca         1 E5X      -0.093000
      7 CAJ          3.8290    61.3760     6.6740 c3         1 E5X       0.217900
      8 CAK          1.4020    56.8050     9.4880 c          1 E5X       0.712600
      9 OAA          2.8980    61.9520     5.7550 oh         1 E5X      -0.654000
     10 OAB          0.8090    57.0100    10.5380 o          1 E5X      -0.722000
     11 OAC          1.5130    55.6890     8.9990 o          1 E5X      -0.722000
     12 H1           3.8310    58.7290     5.9360 ha         1 E5X       0.089000
     13 H2           2.4170    61.3860     9.0320 ha         1 E5X       0.089000
     14 H3           2.8200    56.8080     7.1090 ha         1 E5X       0.124500
     15 H4           1.4000    59.4760    10.2180 ha         1 E5X       0.124500
     16 H5           4.7270    61.0370     6.1400 h1         1 E5X       0.007200
     17 H6           4.1470    62.1270     7.4100 h1         1 E5X       0.007200
     18 H7           3.3610    62.7020     5.3230 ho         1 E5X       0.423000
@<TRIPOS>BOND
     1     1     3 ar  
     2     1     4 ar  
     3     1     7 1   
     4     2     5 ar  
     5     2     6 ar  
     6     2     8 1   
     7     3     5 ar  
     8     3    12 1   
     9     4     6 ar  
    10     4    13 1   
    11     5    14 1   
    12     6    15 1   
    13     7     9 1   
    14     7    16 1   
    15     7    17 1   
    16     8    10 1   
    17     8    11 1   
    18     9    18 1   
@<TRIPOS>SUBSTRUCTURE
     1 E5X         1 TEMP              0 ****  ****    0 ROOT
