@<TRIPOS>MOLECULE
E5Y
   79    80     1     0     0
SMALL
No Charge or Current Charge


@<TRIPOS>ATOM
      1 C4          30.9580     2.5960    11.1510 cc         1 E5Y       0.245300
      2 C5          31.9430     3.3410    10.4840 cc         1 E5Y      -0.191000
      3 C8          31.9540     4.6740     8.2300 c3         1 E5Y      -0.008100
      4 C11         33.3840     5.1860     8.5120 c3         1 E5Y      -0.071400
      5 C18         31.2090     1.9090    12.4860 c3         1 E5Y       0.141500
      6 C14         33.9430     6.0760     7.3850 c3         1 E5Y      -0.091100
      7 C23         30.9530     3.9730    13.9100 c3         1 E5Y       0.159800
      8 C26         31.7430     4.9150    14.8590 c3         1 E5Y       0.165300
      9 C30         31.1140     6.3340    15.0630 c3         1 E5Y       0.074700
     10 C34         28.5940     6.1550    14.8100 c          1 E5Y       0.590100
     11 C35         27.2540     6.1920    15.6020 c3         1 E5Y       0.020700
     12 C38         26.9000     6.5210    18.1060 c          1 E5Y       0.605100
     13 C39         26.8960     7.4760    19.3310 c3         1 E5Y       0.080600
     14 C43         28.2980     8.9640    20.6370 c3         1 E5Y       0.159600
     15 C46         29.7450     9.1210    21.1550 c3         1 E5Y      -0.074400
     16 C49         30.8500     9.2030    20.0720 c3         1 E5Y      -0.070400
     17 C52         30.6730    10.3550    19.0510 c3         1 E5Y      -0.073400
     18 C55         31.8930    10.5780    18.1210 c3         1 E5Y      -0.070400
     19 C58         32.4160     9.3230    17.3690 c3         1 E5Y      -0.073400
     20 C61         31.4040     8.5940    16.4370 c3         1 E5Y      -0.058700
     21 C63         31.9980     7.2280    15.9830 c3         1 E5Y      -0.090400
     22 C66         30.9720     9.4810    15.2420 c3         1 E5Y      -0.093100
     23 C7          31.3850     3.8130     9.3340 cd         1 E5Y      -0.154300
     24 C75         26.0450     6.5810    14.7150 c3         1 E5Y      -0.093100
     25 N1          30.0730     3.3200     9.3590 na         1 E5Y      -0.008200
     26 N21         31.7970     2.8040    13.5220 n7         1 E5Y      -0.860400
     27 N3          29.8090     2.5570    10.4990 nd         1 E5Y      -0.530800
     28 N32         29.7360     6.2640    15.5810 ns         1 E5Y      -0.499900
     29 N37         27.3030     7.0360    16.8420 n          1 E5Y      -0.402800
     30 O28         33.0680     5.0040    14.3220 oh         1 E5Y      -0.638000
     31 O42         28.2360     7.8300    19.7550 os         1 E5Y      -0.452000
     32 O70         26.5560     5.3490    18.2260 o          1 E5Y      -0.597100
     33 O79         28.6480     6.0960    13.5890 o          1 E5Y      -0.600100
     34 H1          32.9520     3.5000    10.8490 ha         1 E5Y       0.162000
     35 H2          31.2970     5.5370     8.0660 hc         1 E5Y       0.046700
     36 H3          31.9600     4.1060     7.2910 hc         1 E5Y       0.046700
     37 H4          34.0550     4.3290     8.6530 hc         1 E5Y       0.048700
     38 H5          33.3870     5.7550     9.4500 hc         1 E5Y       0.048700
     39 H6          30.2610     1.4890    12.8490 h1         1 E5Y       0.043200
     40 H7          31.8830     1.0620    12.3050 h1         1 E5Y       0.043200
     41 H8          34.9570     6.4130     7.6310 hc         1 E5Y       0.032367
     42 H9          33.9840     5.5240     6.4380 hc         1 E5Y       0.032367
     43 H10         33.3130     6.9630     7.2420 hc         1 E5Y       0.032367
     44 H11         30.6700     4.5460    13.0170 h1         1 E5Y       0.052200
     45 H12         30.0280     3.6450    14.4040 h1         1 E5Y       0.052200
     46 H13         31.7920     4.4240    15.8400 h1         1 E5Y       0.023700
     47 H14         31.0750     6.8170    14.0770 h1         1 E5Y       0.093700
     48 H15         27.1050     5.1470    15.9010 h1         1 E5Y       0.092700
     49 H16         26.3260     8.3710    19.0510 h1         1 E5Y       0.049700
     50 H17         26.3550     6.9830    20.1480 h1         1 E5Y       0.049700
     51 H18         27.9930     9.8770    20.1090 h1         1 E5Y       0.024700
     52 H19         27.6250     8.8260    21.4940 h1         1 E5Y       0.024700
     53 H20         29.9690     8.2770    21.8190 hc         1 E5Y       0.046700
     54 H21         29.7920    10.0220    21.7790 hc         1 E5Y       0.046700
     55 H22         30.8930     8.2450    19.5400 hc         1 E5Y       0.044700
     56 H23         31.8160     9.3220    20.5770 hc         1 E5Y       0.044700
     57 H24         30.4830    11.2880    19.5960 hc         1 E5Y       0.036200
     58 H25         29.7830    10.1710    18.4400 hc         1 E5Y       0.036200
     59 H26         32.7170    10.9760    18.7260 hc         1 E5Y       0.038700
     60 H27         31.6490    11.3650    17.3970 hc         1 E5Y       0.038700
     61 H28         32.7960     8.6130    18.1130 hc         1 E5Y       0.037200
     62 H29         33.2890     9.6200    16.7740 hc         1 E5Y       0.037200
     63 H30         30.5100     8.3760    17.0310 hc         1 E5Y       0.054700
     64 H31         32.2410     6.6480    16.8820 hc         1 E5Y       0.044700
     65 H32         32.9520     7.4180    15.4750 hc         1 E5Y       0.044700
     66 H33         30.5070    10.4100    15.5890 hc         1 E5Y       0.037033
     67 H34         31.8350     9.7400    14.6170 hc         1 E5Y       0.037033
     68 H35         30.2360     8.9680    14.6130 hc         1 E5Y       0.037033
     69 H36         26.6030     9.0400    16.7960 h1         1 E5Y       0.045700
     70 H37         28.2800     8.8480    17.3830 h1         1 E5Y       0.045700
     71 H38         27.9230     8.6940    15.6490 h1         1 E5Y       0.045700
     72 H39         25.1180     6.5650    15.3020 hc         1 E5Y       0.050033
     73 H40         26.1690     7.5860    14.2940 hc         1 E5Y       0.050033
     74 H41         25.9290     5.8740    13.8850 hc         1 E5Y       0.050033
     75 H42         29.3600     3.4770     8.6470 hn         1 E5Y       0.364000
     76 H43         31.9620     2.2380    14.3660 hn         1 E5Y       0.406000
     77 H45         29.5900     6.3440    16.5810 hn         1 E5Y       0.319500
     78 H46         33.1200     4.1820    13.7730 ho         1 E5Y       0.435000
     79 C71         27.5420     8.4900    16.6580 c3         1 E5Y       0.087300
@<TRIPOS>BOND
     1     1     2 1   
     2     1     5 1   
     3     1    27 2   
     4     2    23 2   
     5     2    34 1   
     6     3     4 1   
     7     3    23 1   
     8     3    35 1   
     9     3    36 1   
    10     4     6 1   
    11     4    37 1   
    12     4    38 1   
    13     5    26 1   
    14     5    39 1   
    15     5    40 1   
    16     6    41 1   
    17     6    42 1   
    18     6    43 1   
    19     7     8 1   
    20     7    26 1   
    21     7    44 1   
    22     7    45 1   
    23     8     9 1   
    24     8    30 1   
    25     8    46 1   
    26     9    21 1   
    27     9    28 1   
    28     9    47 1   
    29    10    11 1   
    30    10    28 1   
    31    10    33 2   
    32    11    24 1   
    33    11    29 1   
    34    11    48 1   
    35    12    13 1   
    36    12    29 1   
    37    12    32 2   
    38    13    31 1   
    39    13    49 1   
    40    13    50 1   
    41    14    15 1   
    42    14    31 1   
    43    14    51 1   
    44    14    52 1   
    45    15    16 1   
    46    15    53 1   
    47    15    54 1   
    48    16    17 1   
    49    16    55 1   
    50    16    56 1   
    51    17    18 1   
    52    17    57 1   
    53    17    58 1   
    54    18    19 1   
    55    18    59 1   
    56    18    60 1   
    57    19    20 1   
    58    19    61 1   
    59    19    62 1   
    60    20    21 1   
    61    20    22 1   
    62    20    63 1   
    63    21    64 1   
    64    21    65 1   
    65    22    66 1   
    66    22    67 1   
    67    22    68 1   
    68    23    25 1   
    69    24    72 1   
    70    24    73 1   
    71    24    74 1   
    72    25    27 1   
    73    25    75 1   
    74    26    76 1   
    75    28    77 1   
    76    29    79 1   
    77    30    78 1   
    78    69    79 1   
    79    70    79 1   
    80    71    79 1   
@<TRIPOS>SUBSTRUCTURE
     1 E5Y         1 TEMP              0 ****  ****    0 ROOT
