@<TRIPOS>MOLECULE
E5Y
   79    80     1     0     0
SMALL
abcg2


@<TRIPOS>ATOM
      1 C4          30.6860     3.1550    10.5910 cc         1 E5Y       0.245300
      2 C5          31.9590     3.7400    10.4430 cc         1 E5Y      -0.191000
      3 C8          33.0750     4.8410     8.3410 c3         1 E5Y      -0.008100
      4 C11         34.4940     4.4440     8.7410 c3         1 E5Y      -0.071400
      5 C18         30.1090     2.5300    11.8230 c3         1 E5Y       0.141500
      6 C14         35.5430     5.2050     7.9430 c3         1 E5Y      -0.091100
      7 C23         30.2300     4.4330    13.3230 c3         1 E5Y       0.159800
      8 C26         31.1260     5.1220    14.3410 c3         1 E5Y       0.165300
      9 C30         30.5050     6.4530    14.8280 c3         1 E5Y       0.074700
     10 C34         28.0730     6.3000    15.3170 c          1 E5Y       0.590100
     11 C35         27.0750     5.9110    16.4160 c3         1 E5Y       0.020700
     12 C38         27.2620     6.2400    18.8090 c          1 E5Y       0.605100
     13 C39         27.4500     7.1880    19.9840 c3         1 E5Y       0.080600
     14 C43         28.8130     8.9740    20.6720 c3         1 E5Y       0.159600
     15 C46         30.2730     9.2860    20.9370 c3         1 E5Y      -0.074400
     16 C49         31.1630     9.3810    19.7010 c3         1 E5Y      -0.070400
     17 C52         30.7320    10.4320    18.6860 c3         1 E5Y      -0.073400
     18 C55         31.7550    10.6490    17.5720 c3         1 E5Y      -0.070400
     19 C58         32.1450     9.3870    16.8040 c3         1 E5Y      -0.073400
     20 C61         30.9860     8.6270    16.1510 c3         1 E5Y      -0.058700
     21 C63         31.5200     7.3140    15.5790 c3         1 E5Y      -0.090400
     22 C66         30.2820     9.4720    15.0950 c3         1 E5Y      -0.093100
     23 C7          32.0210     4.1310     9.1220 cd         1 E5Y      -0.154300
     24 C75         25.6390     5.8880    15.9170 c3         1 E5Y      -0.093100
     25 N1          30.8410     3.7690     8.5850 na         1 E5Y      -0.008200
     26 N21         30.6990     3.0960    13.0180 n7         1 E5Y      -0.860400
     27 N3          30.0160     3.1850     9.4530 nd         1 E5Y      -0.530800
     28 N32         29.3600     6.1740    15.6760 ns         1 E5Y      -0.499900
     29 N37         27.2420     6.7850    17.5720 n          1 E5Y      -0.402800
     30 O28         32.3740     5.3250    13.7230 oh         1 E5Y      -0.638000
     31 O42         28.7010     7.8100    19.8750 os         1 E5Y      -0.452000
     32 O70         27.1410     5.0390    19.0040 o          1 E5Y      -0.597100
     33 O79         27.7050     6.6670    14.2120 o          1 E5Y      -0.600100
     34 H1          32.7020     3.8750    11.2100 ha         1 E5Y       0.162000
     35 H2          32.9560     5.9220     8.4710 hc         1 E5Y       0.046700
     36 H3          32.9310     4.6500     7.2740 hc         1 E5Y       0.046700
     37 H4          34.6220     3.3690     8.5970 hc         1 E5Y       0.048700
     38 H5          34.6390     4.6330     9.8070 hc         1 E5Y       0.048700
     39 H6          29.0110     2.6120    11.7850 h1         1 E5Y       0.043200
     40 H7          30.3320     1.4600    11.8220 h1         1 E5Y       0.043200
     41 H8          36.5510     4.9140     8.2350 hc         1 E5Y       0.032367
     42 H9          35.4410     5.0170     6.8730 hc         1 E5Y       0.032367
     43 H10         35.4510     6.2820     8.0980 hc         1 E5Y       0.032367
     44 H11         30.2470     5.0300    12.4060 h1         1 E5Y       0.052200
     45 H12         29.1900     4.4370    13.6720 h1         1 E5Y       0.052200
     46 H13         31.2320     4.4690    15.2230 h1         1 E5Y       0.023700
     47 H14         30.1410     7.0040    13.9570 h1         1 E5Y       0.093700
     48 H15         27.3380     4.9020    16.7390 h1         1 E5Y       0.092700
     49 H16         26.6250     7.9140    20.0120 h1         1 E5Y       0.049700
     50 H17         27.3780     6.5950    20.9030 h1         1 E5Y       0.049700
     51 H18         28.3130     9.8140    20.1710 h1         1 E5Y       0.024700
     52 H19         28.3040     8.8330    21.6340 h1         1 E5Y       0.024700
     53 H20         30.6800     8.5280    21.6120 hc         1 E5Y       0.046700
     54 H21         30.3030    10.2300    21.4880 hc         1 E5Y       0.046700
     55 H22         31.2170     8.4010    19.2220 hc         1 E5Y       0.044700
     56 H23         32.1810     9.6050    20.0350 hc         1 E5Y       0.044700
     57 H24         30.5670    11.3850    19.1990 hc         1 E5Y       0.036200
     58 H25         29.7630    10.1600    18.2550 hc         1 E5Y       0.036200
     59 H26         32.6640    11.0760    18.0070 hc         1 E5Y       0.038700
     60 H27         31.3740    11.4050    16.8800 hc         1 E5Y       0.038700
     61 H28         32.6740     8.7040    17.4770 hc         1 E5Y       0.037200
     62 H29         32.8700     9.6550    16.0280 hc         1 E5Y       0.037200
     63 H30         30.2600     8.3850    16.9360 hc         1 E5Y       0.054700
     64 H31         31.9590     6.7260    16.3960 hc         1 E5Y       0.044700
     65 H32         32.3380     7.5530    14.8940 hc         1 E5Y       0.044700
     66 H33         29.9950    10.4450    15.4930 hc         1 E5Y       0.037033
     67 H34         30.9320     9.6460    14.2330 hc         1 E5Y       0.037033
     68 H35         29.3700     8.9980    14.7310 hc         1 E5Y       0.037033
     69 H36         26.8400     8.7780    18.1540 h1         1 E5Y       0.045700
     70 H37         28.2120     8.5980    17.0620 h1         1 E5Y       0.045700
     71 H38         26.5600     8.4170    16.4720 h1         1 E5Y       0.045700
     72 H39         24.9840     5.5530    16.7200 hc         1 E5Y       0.050033
     73 H40         25.2960     6.8650    15.5790 hc         1 E5Y       0.050033
     74 H41         25.5310     5.1920    15.0870 hc         1 E5Y       0.050033
     75 H42         30.5460     3.9060     7.6310 hn         1 E5Y       0.364000
     76 H43         30.5000     2.4870    13.8010 hn         1 E5Y       0.406000
     77 H45         29.5610     5.8550    16.6130 hn         1 E5Y       0.319500
     78 H46         33.0310     5.5080    14.4010 ho         1 E5Y       0.435000
     79 C71         27.2240     8.2120    17.3100 c3         1 E5Y       0.087300
@<TRIPOS>BOND
     1     1     2 1   
     2     1     5 1   
     3     1    27 2   
     4     2    23 2   
     5     2    34 1   
     6     3     4 1   
     7     3    23 1   
     8     3    35 1   
     9     3    36 1   
    10     4     6 1   
    11     4    37 1   
    12     4    38 1   
    13     5    26 1   
    14     5    39 1   
    15     5    40 1   
    16     6    41 1   
    17     6    42 1   
    18     6    43 1   
    19     7     8 1   
    20     7    26 1   
    21     7    44 1   
    22     7    45 1   
    23     8     9 1   
    24     8    30 1   
    25     8    46 1   
    26     9    21 1   
    27     9    28 1   
    28     9    47 1   
    29    10    11 1   
    30    10    28 1   
    31    10    33 2   
    32    11    24 1   
    33    11    29 1   
    34    11    48 1   
    35    12    13 1   
    36    12    29 1   
    37    12    32 2   
    38    13    31 1   
    39    13    49 1   
    40    13    50 1   
    41    14    15 1   
    42    14    31 1   
    43    14    51 1   
    44    14    52 1   
    45    15    16 1   
    46    15    53 1   
    47    15    54 1   
    48    16    17 1   
    49    16    55 1   
    50    16    56 1   
    51    17    18 1   
    52    17    57 1   
    53    17    58 1   
    54    18    19 1   
    55    18    59 1   
    56    18    60 1   
    57    19    20 1   
    58    19    61 1   
    59    19    62 1   
    60    20    21 1   
    61    20    22 1   
    62    20    63 1   
    63    21    64 1   
    64    21    65 1   
    65    22    66 1   
    66    22    67 1   
    67    22    68 1   
    68    23    25 1   
    69    24    72 1   
    70    24    73 1   
    71    24    74 1   
    72    25    27 1   
    73    25    75 1   
    74    26    76 1   
    75    28    77 1   
    76    29    79 1   
    77    30    78 1   
    78    69    79 1   
    79    70    79 1   
    80    71    79 1   
@<TRIPOS>SUBSTRUCTURE
     1 E5Y         1 TEMP              0 ****  ****    0 ROOT
