@<TRIPOS>MOLECULE
E5Z
   42    43     1     0     0
SMALL
abcg2


@<TRIPOS>ATOM
      1 N1          19.7920    -9.7850     3.1650 n8         1 E5Z      -1.003100
      2 S1          20.1420    -8.1740     3.0720 sy         1 E5Z       1.125600
      3 O1          20.2870    -7.5500     4.3790 o          1 E5Z      -0.541000
      4 O2          19.1830    -7.6110     2.1340 o          1 E5Z      -0.541000
      5 C1          21.7460    -8.2200     2.3200 ca         1 E5Z      -0.249500
      6 C2          22.8780    -8.2360     3.1220 ca         1 E5Z      -0.019000
      7 C3          24.1250    -8.2950     2.5250 ca         1 E5Z      -0.096500
      8 C4          24.2420    -8.2970     1.1380 ca         1 E5Z      -0.098600
      9 C5          23.0950    -8.2750     0.3500 ca         1 E5Z      -0.096500
     10 C6          21.8400    -8.2460     0.9360 ca         1 E5Z      -0.019000
     11 C7          25.6130    -8.3760     0.5390 c          1 E5Z       0.606700
     12 N2          25.7820    -7.7110    -0.6120 ns         1 E5Z      -0.505900
     13 C8          27.0080    -7.7480    -1.3780 c3         1 E5Z       0.114000
     14 C9          27.0250    -8.9310    -2.3380 c3         1 E5Z      -0.189400
     15 C10         28.2550    -8.9810    -3.2020 c          1 E5Z       0.709500
     16 O3          26.5020    -9.0060     1.0930 o          1 E5Z      -0.586100
     17 O4          29.1680    -8.1910    -3.1260 o          1 E5Z      -0.533100
     18 N3          28.2990   -10.0780    -4.0510 ne         1 E5Z      -0.674100
     19 C11         28.1330    -9.9610    -5.2960 c2         1 E5Z       0.503200
     20 C12         28.2260   -11.1320    -6.2240 c3         1 E5Z      -0.063400
     21 C13         29.3080   -10.9240    -7.2260 cc         1 E5Z      -0.221300
     22 C14         31.3370   -10.7030    -8.0320 cc         1 E5Z       0.400400
     23 C15         29.2790   -10.6320    -8.5620 cd         1 E5Z       0.247900
     24 N4          30.6390   -10.9580    -6.9080 na         1 E5Z      -0.293500
     25 N5          30.5460   -10.4990    -9.0530 nd         1 E5Z      -0.672000
     26 H1          20.3040   -10.2580     3.9030 hn         1 E5Z       0.475000
     27 H2          18.7940    -9.9430     3.2750 hn         1 E5Z       0.475000
     28 H3          22.7990    -8.2060     4.2000 ha         1 E5Z       0.140000
     29 H4          25.0100    -8.3230     3.1460 ha         1 E5Z       0.129000
     30 H5          23.1620    -8.3040    -0.7300 ha         1 E5Z       0.129000
     31 H6          20.9570    -8.2410     0.3130 ha         1 E5Z       0.140000
     32 H7          25.0210    -7.1650    -0.9830 hn         1 E5Z       0.319500
     33 H8          27.8560    -7.7920    -0.6980 h1         1 E5Z       0.071200
     34 H9          27.0800    -6.8110    -1.9260 h1         1 E5Z       0.071200
     35 H10         26.1480    -8.9040    -2.9930 hc         1 E5Z       0.076700
     36 H11         26.9550    -9.8750    -1.7890 hc         1 E5Z       0.076700
     37 H12         27.9170    -8.9990    -5.7680 h4         1 E5Z      -0.017200
     38 H13         27.2770   -11.2240    -6.7580 hc         1 E5Z       0.078200
     39 H14         28.3760   -12.0470    -5.6490 hc         1 E5Z       0.078200
     40 H15         32.4160   -10.6820    -8.0470 h5         1 E5Z       0.058100
     41 H16         28.4060   -10.5140    -9.1850 h4         1 E5Z       0.037100
     42 H17         31.0330   -11.1610    -6.0030 hn         1 E5Z       0.359000
@<TRIPOS>BOND
     1     1     2 1   
     2     1    26 1   
     3     1    27 1   
     4     2     3 2   
     5     2     4 2   
     6     2     5 1   
     7     5     6 ar  
     8     5    10 ar  
     9     6     7 ar  
    10     6    28 1   
    11     7     8 ar  
    12     7    29 1   
    13     8     9 ar  
    14     8    11 1   
    15     9    10 ar  
    16     9    30 1   
    17    10    31 1   
    18    11    12 1   
    19    11    16 2   
    20    12    13 1   
    21    12    32 1   
    22    13    14 1   
    23    13    33 1   
    24    13    34 1   
    25    14    15 1   
    26    14    35 1   
    27    14    36 1   
    28    15    17 2   
    29    15    18 1   
    30    18    19 2   
    31    19    20 1   
    32    19    37 1   
    33    20    21 1   
    34    20    38 1   
    35    20    39 1   
    36    21    23 2   
    37    21    24 1   
    38    22    24 1   
    39    22    25 2   
    40    22    40 1   
    41    23    25 1   
    42    23    41 1   
    43    24    42 1   
@<TRIPOS>SUBSTRUCTURE
     1 E5Z         1 TEMP              0 ****  ****    0 ROOT
