@<TRIPOS>MOLECULE
E5Z
   42    43     1     0     0
SMALL
No Charge or Current Charge


@<TRIPOS>ATOM
      1 N1          19.9500    -9.7710     3.4200 n8         1 E5Z      -1.003100
      2 S1          20.1810    -8.1900     3.0890 sy         1 E5Z       1.125600
      3 O1          20.2810    -7.5750     4.4110 o          1 E5Z      -0.541000
      4 O2          19.0970    -7.8730     2.1620 o          1 E5Z      -0.541000
      5 C1          21.7710    -8.1750     2.2500 ca         1 E5Z      -0.249500
      6 C2          22.9610    -8.0290     2.9880 ca         1 E5Z      -0.019000
      7 C3          24.2030    -8.0170     2.3300 ca         1 E5Z      -0.096500
      8 C4          24.2850    -8.1520     0.9240 ca         1 E5Z      -0.098600
      9 C5          23.0800    -8.3020     0.1930 ca         1 E5Z      -0.096500
     10 C6          21.8360    -8.3130     0.8500 ca         1 E5Z      -0.019000
     11 C7          25.6460    -8.1350     0.2520 c          1 E5Z       0.606700
     12 N2          25.6640    -8.2630    -1.1230 ns         1 E5Z      -0.505900
     13 C8          26.8780    -8.2930    -1.9450 c3         1 E5Z       0.114000
     14 C9          27.5480    -9.6800    -1.9190 c3         1 E5Z      -0.189400
     15 C10         28.8290    -9.6990    -2.7570 c          1 E5Z       0.709500
     16 O3          26.6850    -8.0120     0.8870 o          1 E5Z      -0.586100
     17 O4          29.8600    -9.1630    -2.3880 o          1 E5Z      -0.533100
     18 N3          28.7190   -10.4070    -3.9450 ne         1 E5Z      -0.674100
     19 C11         28.0700    -9.8580    -4.9260 c2         1 E5Z       0.503200
     20 C12         27.9100   -10.5750    -6.2510 c3         1 E5Z      -0.063400
     21 C13         29.1050   -10.4370    -7.1680 cc         1 E5Z      -0.221300
     22 C14         31.1990   -10.5130    -7.9220 cc         1 E5Z       0.400400
     23 C15         29.1690   -10.0090    -8.4720 cd         1 E5Z       0.247900
     24 N4          30.4030   -10.7620    -6.8320 na         1 E5Z      -0.293500
     25 N5          30.4710   -10.0560    -8.9310 nd         1 E5Z      -0.672000
     26 H1          19.7570    -9.7230     4.4170 hn         1 E5Z       0.475000
     27 H2          19.0200    -9.9060     3.0300 hn         1 E5Z       0.475000
     28 H3          22.9310    -7.9250     4.0720 ha         1 E5Z       0.140000
     29 H4          25.1080    -7.9030     2.9220 ha         1 E5Z       0.129000
     30 H5          23.0850    -8.4120    -0.8880 ha         1 E5Z       0.129000
     31 H6          20.9260    -8.4320     0.2650 ha         1 E5Z       0.140000
     32 H7          24.7690    -8.3520    -1.5850 hn         1 E5Z       0.319500
     33 H8          27.5810    -7.5320    -1.5760 h1         1 E5Z       0.071200
     34 H9          26.6060    -8.0250    -2.9740 h1         1 E5Z       0.071200
     35 H10         26.8340   -10.4210    -2.2980 hc         1 E5Z       0.076700
     36 H11         27.8140    -9.9190    -0.8840 hc         1 E5Z       0.076700
     37 H12         27.6480    -8.8620    -4.8260 h4         1 E5Z      -0.017200
     38 H13         27.0160   -10.1860    -6.7530 hc         1 E5Z       0.078200
     39 H14         27.7100   -11.6370    -6.0680 hc         1 E5Z       0.078200
     40 H15         32.2700   -10.6830    -7.9180 h5         1 E5Z       0.058100
     41 H16         28.3540    -9.6710    -9.1010 h4         1 E5Z       0.037100
     42 H17         30.7320   -11.1180    -5.9420 hn         1 E5Z       0.359000
@<TRIPOS>BOND
     1     1     2 1   
     2     1    26 1   
     3     1    27 1   
     4     2     3 2   
     5     2     4 2   
     6     2     5 1   
     7     5     6 ar  
     8     5    10 ar  
     9     6     7 ar  
    10     6    28 1   
    11     7     8 ar  
    12     7    29 1   
    13     8     9 ar  
    14     8    11 1   
    15     9    10 ar  
    16     9    30 1   
    17    10    31 1   
    18    11    12 1   
    19    11    16 2   
    20    12    13 1   
    21    12    32 1   
    22    13    14 1   
    23    13    33 1   
    24    13    34 1   
    25    14    15 1   
    26    14    35 1   
    27    14    36 1   
    28    15    17 2   
    29    15    18 1   
    30    18    19 2   
    31    19    20 1   
    32    19    37 1   
    33    20    21 1   
    34    20    38 1   
    35    20    39 1   
    36    21    23 2   
    37    21    24 1   
    38    22    24 1   
    39    22    25 2   
    40    22    40 1   
    41    23    25 1   
    42    23    41 1   
    43    24    42 1   
@<TRIPOS>SUBSTRUCTURE
     1 E5Z         1 TEMP              0 ****  ****    0 ROOT
