@<TRIPOS>MOLECULE
E60
   10    10     1     0     0
SMALL
No Charge or Current Charge


@<TRIPOS>ATOM
      1 CAE         -1.8980    -2.7710    -9.9650 c5         1 E60      -0.097400
      2 CAF         -1.6230    -3.2940    -8.5520 c          1 E60       0.567000
      3 CAG         -2.8690    -1.2980    -8.0310 cs         1 E60       0.332000
      4 NAD         -2.1920    -2.4180    -7.6790 ns         1 E60      -0.407500
      5 OAC         -1.0160    -4.2980    -8.2180 o          1 E60      -0.468000
      6 SAA         -2.8770    -1.1900    -9.7980 ss         1 E60      -0.133600
      7 SAB         -3.5740    -0.2110    -6.9790 s          1 E60      -0.392400
      8 H1          -2.4710    -3.5250   -10.5180 h1         1 E60       0.117700
      9 H2          -2.0940    -2.6290    -6.6950 hn         1 E60       0.363500
     10 H3          -0.9420    -2.5830   -10.4680 h1         1 E60       0.117700
@<TRIPOS>BOND
     1     1     2 1   
     2     1     6 1   
     3     1     8 1   
     4     1    10 1   
     5     2     4 1   
     6     2     5 2   
     7     3     4 1   
     8     3     6 1   
     9     3     7 2   
    10     4     9 1   
@<TRIPOS>SUBSTRUCTURE
     1 E60         1 TEMP              0 ****  ****    0 ROOT
