@<TRIPOS>MOLECULE
E60
   10    10     1     0     0
SMALL
bcc


@<TRIPOS>ATOM
      1 CAE         -1.9050    -2.7610    -9.9500 c5         1 E60      -0.145300
      2 CAF         -1.6330    -3.2750    -8.5560 c          1 E60       0.709500
      3 CAG         -2.8530    -1.3250    -8.0360 cs         1 E60       0.399000
      4 NAD         -2.1880    -2.4300    -7.6190 ns         1 E60      -0.541500
      5 OAC         -1.0230    -4.2750    -8.2900 o          1 E60      -0.543500
      6 SAA         -2.8510    -1.2310    -9.7700 ss         1 E60      -0.085700
      7 SAB         -3.5650    -0.2180    -7.0680 s          1 E60      -0.392400
      8 H1          -2.4720    -3.5010   -10.5150 h1         1 E60       0.117700
      9 H2          -2.1030    -2.6270    -6.6290 hn         1 E60       0.363500
     10 H3          -0.9640    -2.5740   -10.4690 h1         1 E60       0.117700
@<TRIPOS>BOND
     1     1     2 1   
     2     1     6 1   
     3     1     8 1   
     4     1    10 1   
     5     2     4 1   
     6     2     5 2   
     7     3     4 1   
     8     3     6 1   
     9     3     7 2   
    10     4     9 1   
@<TRIPOS>SUBSTRUCTURE
     1 E60         1 TEMP              0 ****  ****    0 ROOT
