@<TRIPOS>MOLECULE
E61
   85    87     1     0     0
SMALL
abcg2


@<TRIPOS>ATOM
      1 C3          31.2270     6.1080    14.4710 c3         1 E61       0.075700
      2 C5          32.2990     6.9520    15.1670 c3         1 E61      -0.094400
      3 C8          31.8120     8.2990    15.7050 c3         1 E61      -0.050700
      4 C10         32.9570     8.9860    16.4530 c3         1 E61      -0.110400
      5 O16         31.5010    10.0940    18.1100 os         1 E61      -0.456000
      6 C13         32.5640    10.2550    17.1990 c3         1 E61       0.160600
      7 C17         31.8310     9.3680    19.2720 c3         1 E61       0.158600
      8 C20         30.7480     9.5750    20.3160 c3         1 E61      -0.071400
      9 C23         29.4010     8.9290    19.9940 c3         1 E61      -0.110400
     10 C26         29.3880     7.4260    20.2800 c3         1 E61       0.214800
     11 C31         27.6470     6.5170    18.7660 ca         1 E61       0.315000
     12 C32         28.4700     6.5550    17.6330 ca         1 E61      -0.166000
     13 C34         27.9650     6.2440    16.3770 ca         1 E61      -0.111600
     14 C35         26.6250     5.9100    16.2150 ca         1 E61      -0.101000
     15 C37         25.7950     5.8650    17.3300 ca         1 E61      -0.049300
     16 C38         26.3020     6.1640    18.5860 ca         1 E61      -0.147000
     17 C40         24.3420     5.5110    17.1790 c3         1 E61       0.200900
     18 C44         22.6600     4.1230    18.0130 c3         1 E61       0.143900
     19 C48         28.8490     6.3080    15.1720 c          1 E61       0.616700
     20 C50         31.2580     9.1790    14.5880 c3         1 E61      -0.093100
     21 C54         31.7670     4.7380    14.0120 c3         1 E61       0.168300
     22 C58         30.7750     4.0290    13.1020 c3         1 E61       0.158800
     23 C63         30.4660     2.0180    11.7730 c3         1 E61       0.216100
     24 C66         31.0100     2.4150    10.4200 ca         1 E61      -0.088300
     25 C67         32.2320     3.0610    10.2890 ca         1 E61      -0.083000
     26 C69         32.7410     3.4210     9.0410 ca         1 E61      -0.078300
     27 C70         32.0070     3.0980     7.9050 ca         1 E61      -0.110000
     28 C72         30.7850     2.4430     8.0190 ca         1 E61      -0.114000
     29 C74         30.2840     2.1120     9.2680 ca         1 E61      -0.116000
     30 C76         34.0470     4.1760     8.9400 c3         1 E61      -0.012400
     31 C78         35.2030     3.4020     9.5710 c3         1 E61      -0.086600
     32 C82         33.9130     5.5640     9.5690 c3         1 E61      -0.086600
     33 N1          30.1160     5.9080    15.3800 ns         1 E61      -0.507900
     34 N29         28.1250     6.7770    20.0210 nu         1 E61      -0.961200
     35 N61         31.1590     2.6480    12.8750 n7         1 E61      -0.865400
     36 O43         24.0250     4.4570    18.0540 os         1 E61      -0.450000
     37 O49         28.4270     6.6990    14.0920 o          1 E61      -0.598100
     38 O56         32.9760     4.8710    13.3010 oh         1 E61      -0.643000
     39 H1          30.8460     6.6440    13.5990 h1         1 E61       0.097700
     40 H2          32.7260     6.3700    15.9940 hc         1 E61       0.041700
     41 H3          33.1130     7.1390    14.4620 hc         1 E61       0.041700
     42 H4          31.0110     8.1210    16.4300 hc         1 E61       0.056700
     43 H5          33.4100     8.2750    17.1530 hc         1 E61       0.040200
     44 H6          33.7530     9.2540    15.7490 hc         1 E61       0.040200
     45 H7          33.4500    10.6510    17.7150 h1         1 E61       0.044700
     46 H8          32.2420    11.0230    16.4930 h1         1 E61       0.044700
     47 H9          31.9590     8.2980    19.0520 h1         1 E61       0.019200
     48 H10         32.7920     9.7170    19.6770 h1         1 E61       0.019200
     49 H11         31.1190     9.1840    21.2690 hc         1 E61       0.048200
     50 H12         30.6190    10.6500    20.4660 hc         1 E61       0.048200
     51 H13         29.1270     9.1210    18.9540 hc         1 E61       0.054700
     52 H14         28.6230     9.3930    20.6060 hc         1 E61       0.054700
     53 H15         29.6220     7.2630    21.3340 h1         1 E61       0.047200
     54 H16         30.1780     6.9140    19.7240 h1         1 E61       0.047200
     55 H17         29.5030     6.8580    17.7350 ha         1 E61       0.115000
     56 H18         26.2370     5.6710    15.2330 ha         1 E61       0.132000
     57 H19         25.6480     6.1340    19.4510 ha         1 E61       0.119000
     58 H20         23.7230     6.3920    17.4000 h1         1 E61       0.031200
     59 H21         24.1320     5.2350    16.1370 h1         1 E61       0.031200
     60 H22         22.4930     3.3060    18.7140 h1         1 E61       0.029367
     61 H23         22.0220     4.9660    18.3050 h1         1 E61       0.029367
     62 H24         22.3460     3.7940    17.0160 h1         1 E61       0.029367
     63 H25         30.9750    10.1670    14.9530 hc         1 E61       0.040033
     64 H26         32.0010     9.3190    13.7990 hc         1 E61       0.040033
     65 H27         30.3680     8.7480    14.1280 hc         1 E61       0.040033
     66 H28         31.9190     4.1250    14.9160 h1         1 E61       0.022700
     67 H29         30.7590     4.5560    12.1440 h1         1 E61       0.054200
     68 H30         29.7620     4.1140    13.5170 h1         1 E61       0.054200
     69 H31         29.3800     2.2050    11.7820 h1         1 E61       0.035200
     70 H32         30.5790     0.9360    11.8850 h1         1 E61       0.035200
     71 H33         32.7820     3.3080    11.1890 ha         1 E61       0.144000
     72 H34         32.3870     3.3630     6.9250 ha         1 E61       0.107000
     73 H35         30.2190     2.2010     7.1280 ha         1 E61       0.108000
     74 H36         29.3240     1.6140     9.3500 ha         1 E61       0.105000
     75 H37         34.2730     4.3080     7.8770 hc         1 E61       0.043700
     76 H38         35.3230     2.4180     9.1150 hc         1 E61       0.035367
     77 H39         36.1420     3.9450     9.4440 hc         1 E61       0.035367
     78 H40         35.0500     3.2580    10.6420 hc         1 E61       0.035367
     79 H41         33.1220     6.1410     9.0880 hc         1 E61       0.035367
     80 H42         33.6750     5.4930    10.6320 hc         1 E61       0.035367
     81 H43         34.8430     6.1280     9.4700 hc         1 E61       0.035367
     82 H44         30.3450     5.5180    16.2810 hn         1 E61       0.311500
     83 H45         27.4220     6.9120    20.7300 hn         1 E61       0.473000
     84 H46         30.9880     2.1140    13.7160 hn         1 E61       0.408000
     85 H48         33.6870     5.0480    13.9240 ho         1 E61       0.437000
@<TRIPOS>BOND
     1     1     2 1   
     2     1    21 1   
     3     1    33 1   
     4     1    39 1   
     5     2     3 1   
     6     2    40 1   
     7     2    41 1   
     8     3     4 1   
     9     3    20 1   
    10     3    42 1   
    11     4     6 1   
    12     4    43 1   
    13     4    44 1   
    14     5     6 1   
    15     5     7 1   
    16     6    45 1   
    17     6    46 1   
    18     7     8 1   
    19     7    47 1   
    20     7    48 1   
    21     8     9 1   
    22     8    49 1   
    23     8    50 1   
    24     9    10 1   
    25     9    51 1   
    26     9    52 1   
    27    10    34 1   
    28    10    53 1   
    29    10    54 1   
    30    11    12 ar  
    31    11    16 ar  
    32    11    34 1   
    33    12    13 ar  
    34    12    55 1   
    35    13    14 ar  
    36    13    19 1   
    37    14    15 ar  
    38    14    56 1   
    39    15    16 ar  
    40    15    17 1   
    41    16    57 1   
    42    17    36 1   
    43    17    58 1   
    44    17    59 1   
    45    18    36 1   
    46    18    60 1   
    47    18    61 1   
    48    18    62 1   
    49    19    33 1   
    50    19    37 2   
    51    20    63 1   
    52    20    64 1   
    53    20    65 1   
    54    21    22 1   
    55    21    38 1   
    56    21    66 1   
    57    22    35 1   
    58    22    67 1   
    59    22    68 1   
    60    23    24 1   
    61    23    35 1   
    62    23    69 1   
    63    23    70 1   
    64    24    25 ar  
    65    24    29 ar  
    66    25    26 ar  
    67    25    71 1   
    68    26    27 ar  
    69    26    30 1   
    70    27    28 ar  
    71    27    72 1   
    72    28    29 ar  
    73    28    73 1   
    74    29    74 1   
    75    30    31 1   
    76    30    32 1   
    77    30    75 1   
    78    31    76 1   
    79    31    77 1   
    80    31    78 1   
    81    32    79 1   
    82    32    80 1   
    83    32    81 1   
    84    33    82 1   
    85    34    83 1   
    86    35    84 1   
    87    38    85 1   
@<TRIPOS>SUBSTRUCTURE
     1 E61         1 TEMP              0 ****  ****    0 ROOT
