@<TRIPOS>MOLECULE
E61
   85    87     1     0     0
SMALL
No Charge or Current Charge


@<TRIPOS>ATOM
      1 C3          31.9690     5.9480    15.0070 c3         1 E61       0.075700
      2 C5          32.8690     6.9470    15.7920 c3         1 E61      -0.094400
      3 C8          32.2110     8.3130    16.1630 c3         1 E61      -0.050700
      4 C10         33.1480     9.1280    17.1010 c3         1 E61      -0.110400
      5 O16         31.3370    10.2960    18.3080 os         1 E61      -0.456000
      6 C13         32.5880    10.4830    17.6100 c3         1 E61       0.160600
      7 C17         31.4210     9.6760    19.6060 c3         1 E61       0.158600
      8 C20         30.0730     9.9060    20.3290 c3         1 E61      -0.071400
      9 C23         28.8960     9.0350    19.8220 c3         1 E61      -0.110400
     10 C26         28.9490     7.5730    20.3200 c3         1 E61       0.214800
     11 C31         27.5320     6.4780    18.4840 ca         1 E61       0.315000
     12 C32         28.5810     6.3100    17.5670 ca         1 E61      -0.166000
     13 C34         28.3220     6.0050    16.2090 ca         1 E61      -0.111600
     14 C35         26.9790     5.8710    15.7940 ca         1 E61      -0.101000
     15 C37         25.9210     6.0210    16.7110 ca         1 E61      -0.049300
     16 C38         26.2060     6.3220    18.0570 ca         1 E61      -0.147000
     17 C40         24.4780     5.8650    16.2480 c3         1 E61       0.200900
     18 C44         22.7660     4.1900    15.9200 c3         1 E61       0.143900
     19 C48         29.4460     5.8630    15.2030 c          1 E61       0.616700
     20 C50         31.7990     9.1150    14.9010 c3         1 E61      -0.093100
     21 C54         32.6670     4.5830    14.7250 c3         1 E61       0.168300
     22 C58         31.7740     3.5690    13.9590 c3         1 E61       0.158800
     23 C63         31.9020     1.5510    12.4700 c3         1 E61       0.216100
     24 C66         31.3620     2.2740    11.2400 ca         1 E61      -0.088300
     25 C67         32.2480     2.9010    10.3420 ca         1 E61      -0.083000
     26 C69         31.7630     3.5840     9.2060 ca         1 E61      -0.078300
     27 C70         30.3740     3.6270     8.9740 ca         1 E61      -0.110000
     28 C72         29.4850     3.0020     9.8640 ca         1 E61      -0.114000
     29 C74         29.9760     2.3280    10.9940 ca         1 E61      -0.116000
     30 C76         32.7260     4.2760     8.2380 c3         1 E61      -0.012400
     31 C78         33.6820     3.2640     7.5680 c3         1 E61      -0.086600
     32 C82         33.4990     5.4190     8.9310 c3         1 E61      -0.086600
     33 N1          30.7110     5.7710    15.7420 ns         1 E61      -0.507900
     34 N29         27.7950     6.8030    19.8180 nu         1 E61      -0.961200
     35 N61         32.6100     2.4770    13.3780 n7         1 E61      -0.865400
     36 O43         24.1130     4.4770    16.3330 os         1 E61      -0.450000
     37 O49         29.2580     5.8680    13.9950 o          1 E61      -0.598100
     38 O56         33.8500     4.7550    13.9380 oh         1 E61      -0.643000
     39 H1          31.7410     6.3960    14.0300 h1         1 E61       0.097700
     40 H2          33.1960     6.4540    16.7160 hc         1 E61       0.041700
     41 H3          33.7780     7.1430    15.2110 hc         1 E61       0.041700
     42 H4          31.2950     8.1110    16.7330 hc         1 E61       0.056700
     43 H5          33.4210     8.5120    17.9660 hc         1 E61       0.040200
     44 H6          34.0870     9.3300    16.5710 hc         1 E61       0.040200
     45 H7          33.3290    10.9580    18.2680 h1         1 E61       0.044700
     46 H8          32.4430    11.1570    16.7570 h1         1 E61       0.044700
     47 H9          31.6360     8.6030    19.5260 h1         1 E61       0.019200
     48 H10         32.2170    10.1460    20.1980 h1         1 E61       0.019200
     49 H11         30.2130     9.7270    21.4020 hc         1 E61       0.048200
     50 H12         29.8020    10.9640    20.2310 hc         1 E61       0.048200
     51 H13         28.8720     9.0580    18.7260 hc         1 E61       0.054700
     52 H14         27.9570     9.4840    20.1670 hc         1 E61       0.054700
     53 H15         28.9360     7.5760    21.4190 h1         1 E61       0.047200
     54 H16         29.8930     7.1040    20.0090 h1         1 E61       0.047200
     55 H17         29.5980     6.4410    17.9170 ha         1 E61       0.115000
     56 H18         26.7540     5.6410    14.7540 ha         1 E61       0.132000
     57 H19         25.3930     6.4450    18.7660 ha         1 E61       0.119000
     58 H20         23.8210     6.4780    16.8800 h1         1 E61       0.031200
     59 H21         24.3840     6.2280    15.2150 h1         1 E61       0.031200
     60 H22         22.5600     3.1160    16.0120 h1         1 E61       0.029367
     61 H23         22.0430     4.7320    16.5440 h1         1 E61       0.029367
     62 H24         22.6090     4.4800    14.8730 h1         1 E61       0.029367
     63 H25         31.2830    10.0430    15.1700 hc         1 E61       0.040033
     64 H26         32.6780     9.3710    14.2970 hc         1 E61       0.040033
     65 H27         31.1070     8.5400    14.2740 hc         1 E61       0.040033
     66 H28         32.9390     4.1280    15.6870 h1         1 E61       0.022700
     67 H29         31.2500     4.1130    13.1620 h1         1 E61       0.054200
     68 H30         31.0090     3.1660    14.6380 h1         1 E61       0.054200
     69 H31         31.0760     1.0580    13.0000 h1         1 E61       0.035200
     70 H32         32.5880     0.7620    12.1350 h1         1 E61       0.035200
     71 H33         33.3160     2.8620    10.5390 ha         1 E61       0.144000
     72 H34         29.9790     4.1480     8.1050 ha         1 E61       0.107000
     73 H35         28.4140     3.0420     9.6790 ha         1 E61       0.108000
     74 H36         29.2800     1.8510    11.6800 ha         1 E61       0.105000
     75 H37         32.1430     4.7370     7.4300 hc         1 E61       0.043700
     76 H38         33.1120     2.4730     7.0640 hc         1 E61       0.035367
     77 H39         34.3070     3.7620     6.8170 hc         1 E61       0.035367
     78 H40         34.3430     2.7930     8.3050 hc         1 E61       0.035367
     79 H41         32.8020     6.1370     9.3790 hc         1 E61       0.035367
     80 H42         34.1510     5.0330     9.7240 hc         1 E61       0.035367
     81 H43         34.1230     5.9580     8.2080 hc         1 E61       0.035367
     82 H44         30.7590     5.7310    16.7510 hn         1 E61       0.311500
     83 H45         26.9730     6.7970    20.4250 hn         1 E61       0.473000
     84 H46         32.9860     1.9170    14.1560 hn         1 E61       0.408000
     85 H48         33.8340     3.9410    13.3760 ho         1 E61       0.437000
@<TRIPOS>BOND
     1     1     2 1   
     2     1    21 1   
     3     1    33 1   
     4     1    39 1   
     5     2     3 1   
     6     2    40 1   
     7     2    41 1   
     8     3     4 1   
     9     3    20 1   
    10     3    42 1   
    11     4     6 1   
    12     4    43 1   
    13     4    44 1   
    14     5     6 1   
    15     5     7 1   
    16     6    45 1   
    17     6    46 1   
    18     7     8 1   
    19     7    47 1   
    20     7    48 1   
    21     8     9 1   
    22     8    49 1   
    23     8    50 1   
    24     9    10 1   
    25     9    51 1   
    26     9    52 1   
    27    10    34 1   
    28    10    53 1   
    29    10    54 1   
    30    11    12 ar  
    31    11    16 ar  
    32    11    34 1   
    33    12    13 ar  
    34    12    55 1   
    35    13    14 ar  
    36    13    19 1   
    37    14    15 ar  
    38    14    56 1   
    39    15    16 ar  
    40    15    17 1   
    41    16    57 1   
    42    17    36 1   
    43    17    58 1   
    44    17    59 1   
    45    18    36 1   
    46    18    60 1   
    47    18    61 1   
    48    18    62 1   
    49    19    33 1   
    50    19    37 2   
    51    20    63 1   
    52    20    64 1   
    53    20    65 1   
    54    21    22 1   
    55    21    38 1   
    56    21    66 1   
    57    22    35 1   
    58    22    67 1   
    59    22    68 1   
    60    23    24 1   
    61    23    35 1   
    62    23    69 1   
    63    23    70 1   
    64    24    25 ar  
    65    24    29 ar  
    66    25    26 ar  
    67    25    71 1   
    68    26    27 ar  
    69    26    30 1   
    70    27    28 ar  
    71    27    72 1   
    72    28    29 ar  
    73    28    73 1   
    74    29    74 1   
    75    30    31 1   
    76    30    32 1   
    77    30    75 1   
    78    31    76 1   
    79    31    77 1   
    80    31    78 1   
    81    32    79 1   
    82    32    80 1   
    83    32    81 1   
    84    33    82 1   
    85    34    83 1   
    86    35    84 1   
    87    38    85 1   
@<TRIPOS>SUBSTRUCTURE
     1 E61         1 TEMP              0 ****  ****    0 ROOT
