@<TRIPOS>MOLECULE
E62
   54    55     1     0     0
SMALL
abcg2


@<TRIPOS>ATOM
      1 CAV          1.3970     2.2790     1.6950 c3         1 E62      -0.081100
      2 CAU          1.8930     1.8610     0.3150 c3         1 E62      -0.089700
      3 CAT          3.4180     1.9640     0.2060 c3         1 E62      -0.059400
      4 CAS          4.1390     0.7700     0.8490 c3         1 E62      -0.166400
      5 CAQ          3.8720    -0.4960     0.0590 c          1 E62       0.578100
      6 OAR          4.2900    -0.6030    -1.0710 o          1 E62      -0.507100
      7 CAO          3.0880    -1.6450     0.6970 c3         1 E62       0.073300
      8 OAP          2.2430    -1.1280     1.6850 oh         1 E62      -0.647000
      9 CAM          2.3670    -2.4920    -0.3720 c3         1 E62       0.152300
     10 OAN          3.3310    -3.4180    -0.8270 oh         1 E62      -0.660000
     11 CAL          1.1120    -3.2210     0.1430 c3         1 E62      -0.073200
     12 CAK         -0.0780    -2.3210     0.3230 c2         1 E62      -0.204200
     13 CAJ         -0.8170    -1.8720    -0.6860 ce         1 E62      -0.163200
     14 CAH         -1.9370    -0.9200    -0.4810 ca         1 E62       0.086200
     15 CAI         -3.1180    -1.4080     0.0260 ca         1 E62      -0.248000
     16 CAC         -4.2020    -0.5480     0.3150 ca         1 E62       0.406000
     17 NAB         -5.3530    -1.0640     0.7930 nu         1 E62      -0.974200
     18 CAA         -6.5170    -0.2840     1.1120 c3         1 E62       0.217100
     19 CAD         -4.0370     0.8250     0.1130 ca         1 E62      -0.270000
     20 CAE         -2.8340     1.3280    -0.3630 ca         1 E62       0.256100
     21 OAF         -2.7740     2.6610    -0.4990 oh         1 E62      -0.541100
     22 CAG         -1.7730     0.4680    -0.7100 ca         1 E62      -0.300600
     23 CAZ         -0.4940     0.9510    -1.2390 c          1 E62       0.632700
     24 OBA          0.2510     0.3100    -1.9400 o          1 E62      -0.481000
     25 OAY         -0.1990     2.2030    -0.8350 os         1 E62      -0.503100
     26 CAW          1.1920     2.6070    -0.8290 c3         1 E62       0.192300
     27 CAX          1.2120     4.1160    -0.7250 c3         1 E62      -0.094100
     28 H1           0.3120     2.1960     1.7790 hc         1 E62       0.036367
     29 H2           1.8290     1.6370     2.4620 hc         1 E62       0.036367
     30 H3           1.6770     3.3070     1.9300 hc         1 E62       0.036367
     31 H4           1.6300     0.8090     0.1850 hc         1 E62       0.072700
     32 H5           3.7250     2.0250    -0.8420 hc         1 E62       0.048700
     33 H6           3.7710     2.8830     0.6810 hc         1 E62       0.048700
     34 H7           5.2170     0.9480     0.8120 hc         1 E62       0.065200
     35 H8           3.8640     0.6670     1.8960 hc         1 E62       0.065200
     36 H9           3.8550    -2.2960     1.1490 h1         1 E62       0.063700
     37 H10          2.0530    -1.8180     2.3280 ho         1 E62       0.450000
     38 H11          2.0400    -1.8420    -1.1940 h1         1 E62       0.069700
     39 H12          3.0290    -3.7840    -1.6640 ho         1 E62       0.451000
     40 H13          0.8710    -3.9770    -0.6100 hc         1 E62       0.046700
     41 H14          1.3330    -3.7650     1.0650 hc         1 E62       0.046700
     42 H15         -0.3070    -1.9800     1.3270 ha         1 E62       0.175000
     43 H16         -0.5940    -2.1780    -1.7040 ha         1 E62       0.196000
     44 H17         -3.2200    -2.4700     0.2140 ha         1 E62       0.116000
     45 H18         -5.4100    -2.0610     0.9050 hn         1 E62       0.493000
     46 H19         -7.2910    -0.9510     1.4820 h1         1 E62       0.038700
     47 H20         -6.3140     0.4590     1.8870 h1         1 E62       0.038700
     48 H21         -6.9140     0.2420     0.2390 h1         1 E62       0.038700
     49 H22         -4.8330     1.5230     0.3400 ha         1 E62       0.132000
     50 H23         -1.8630     2.9350    -0.6850 ho         1 E62       0.498000
     51 H24          1.6460     2.3070    -1.7770 h1         1 E62       0.067700
     52 H25          2.2440     4.4650    -0.6670 hc         1 E62       0.046700
     53 H26          0.7590     4.5750    -1.6040 hc         1 E62       0.046700
     54 H27          0.6860     4.4740     0.1600 hc         1 E62       0.046700
@<TRIPOS>BOND
     1     1     2 1   
     2     1    28 1   
     3     1    29 1   
     4     1    30 1   
     5     2     3 1   
     6     2    26 1   
     7     2    31 1   
     8     3     4 1   
     9     3    32 1   
    10     3    33 1   
    11     4     5 1   
    12     4    34 1   
    13     4    35 1   
    14     5     6 2   
    15     5     7 1   
    16     7     8 1   
    17     7     9 1   
    18     7    36 1   
    19     8    37 1   
    20     9    10 1   
    21     9    11 1   
    22     9    38 1   
    23    10    39 1   
    24    11    12 1   
    25    11    40 1   
    26    11    41 1   
    27    12    13 2   
    28    12    42 1   
    29    13    14 1   
    30    13    43 1   
    31    14    15 ar  
    32    14    22 ar  
    33    15    16 ar  
    34    15    44 1   
    35    16    17 1   
    36    16    19 ar  
    37    17    18 1   
    38    17    45 1   
    39    18    46 1   
    40    18    47 1   
    41    18    48 1   
    42    19    20 ar  
    43    19    49 1   
    44    20    21 1   
    45    20    22 ar  
    46    21    50 1   
    47    22    23 1   
    48    23    24 2   
    49    23    25 1   
    50    25    26 1   
    51    26    27 1   
    52    26    51 1   
    53    27    52 1   
    54    27    53 1   
    55    27    54 1   
@<TRIPOS>SUBSTRUCTURE
     1 E62         1 TEMP              0 ****  ****    0 ROOT
