@<TRIPOS>MOLECULE
E62
   54    55     1     0     0
SMALL
No Charge or Current Charge


@<TRIPOS>ATOM
      1 CAV          1.5730     2.2440     1.7500 c3         1 E62      -0.081100
      2 CAU          1.9810     1.9200     0.2870 c3         1 E62      -0.089700
      3 CAT          3.5210     1.9890     0.0770 c3         1 E62      -0.059400
      4 CAS          4.3090     0.7790     0.6670 c3         1 E62      -0.166400
      5 CAQ          3.9670    -0.5470    -0.0550 c          1 E62       0.578100
      6 OAR          4.3400    -0.7040    -1.2140 o          1 E62      -0.507100
      7 CAO          3.1430    -1.6450     0.7200 c3         1 E62       0.073300
      8 OAP          2.2590    -1.0710     1.7170 oh         1 E62      -0.647000
      9 CAM          2.3490    -2.5650    -0.2790 c3         1 E62       0.152300
     10 OAN          3.2450    -3.5430    -0.8320 oh         1 E62      -0.660000
     11 CAL          1.1010    -3.3050     0.2940 c3         1 E62      -0.073200
     12 CAK         -0.1220    -2.4100     0.4290 c2         1 E62      -0.204200
     13 CAJ         -0.7730    -1.8170    -0.5970 ce         1 E62      -0.163200
     14 CAH         -1.9190    -0.8840    -0.4310 ca         1 E62       0.086200
     15 CAI         -3.1290    -1.3900     0.0660 ca         1 E62      -0.248000
     16 CAC         -4.2230    -0.5470     0.2750 ca         1 E62       0.406000
     17 NAB         -5.4080    -1.0920     0.7610 nu         1 E62      -0.974200
     18 CAA         -6.6810    -0.3930     1.0160 c3         1 E62       0.217100
     19 CAD         -4.1050     0.8200     0.0090 ca         1 E62      -0.270000
     20 CAE         -2.8990     1.3400    -0.4680 ca         1 E62       0.256100
     21 OAF         -2.8110     2.6790    -0.6760 oh         1 E62      -0.541100
     22 CAG         -1.7980     0.4970    -0.7150 ca         1 E62      -0.300600
     23 CAZ         -0.4990     1.0540    -1.2240 c          1 E62       0.632700
     24 OBA          0.2050     0.4820    -2.0440 o          1 E62      -0.481000
     25 OAY         -0.2000     2.2920    -0.7020 os         1 E62      -0.503100
     26 CAW          1.1710     2.7380    -0.7720 c3         1 E62       0.192300
     27 CAX          1.1760     4.2660    -0.5620 c3         1 E62      -0.094100
     28 H1           0.4890     2.1500     1.8840 hc         1 E62       0.036367
     29 H2           2.0520     1.5590     2.4580 hc         1 E62       0.036367
     30 H3           1.8670     3.2630     2.0270 hc         1 E62       0.036367
     31 H4           1.7050     0.8760     0.1200 hc         1 E62       0.072700
     32 H5           3.7390     2.0460    -0.9970 hc         1 E62       0.048700
     33 H6           3.9050     2.9200     0.5140 hc         1 E62       0.048700
     34 H7           5.3770     0.9760     0.5180 hc         1 E62       0.065200
     35 H8           4.1160     0.6990     1.7420 hc         1 E62       0.065200
     36 H9           3.8880    -2.2660     1.2360 h1         1 E62       0.063700
     37 H10          1.8220    -1.8130     2.1880 ho         1 E62       0.450000
     38 H11          1.9840    -1.9200    -1.0920 h1         1 E62       0.069700
     39 H12          2.7660    -4.0010    -1.5580 ho         1 E62       0.451000
     40 H13          0.8410    -4.1360    -0.3740 hc         1 E62       0.046700
     41 H14          1.3560    -3.7650     1.2570 hc         1 E62       0.046700
     42 H15         -0.4550    -2.2390     1.4550 ha         1 E62       0.175000
     43 H16         -0.4460    -1.9670    -1.6270 ha         1 E62       0.196000
     44 H17         -3.2130    -2.4490     0.2880 ha         1 E62       0.116000
     45 H18         -5.3890    -2.1000     0.9270 hn         1 E62       0.493000
     46 H19         -7.4360    -1.0970     1.3920 h1         1 E62       0.038700
     47 H20         -6.5440     0.3990     1.7650 h1         1 E62       0.038700
     48 H21         -7.0630     0.0620     0.0920 h1         1 E62       0.038700
     49 H22         -4.9390     1.4900     0.1820 ha         1 E62       0.132000
     50 H23         -1.8450     2.8800    -0.7230 ho         1 E62       0.498000
     51 H24          1.5870     2.5440    -1.7710 h1         1 E62       0.067700
     52 H25          2.2030     4.6460    -0.5190 hc         1 E62       0.046700
     53 H26          0.6660     4.7640    -1.3950 hc         1 E62       0.046700
     54 H27          0.6630     4.5440     0.3650 hc         1 E62       0.046700
@<TRIPOS>BOND
     1     1     2 1   
     2     1    28 1   
     3     1    29 1   
     4     1    30 1   
     5     2     3 1   
     6     2    26 1   
     7     2    31 1   
     8     3     4 1   
     9     3    32 1   
    10     3    33 1   
    11     4     5 1   
    12     4    34 1   
    13     4    35 1   
    14     5     6 2   
    15     5     7 1   
    16     7     8 1   
    17     7     9 1   
    18     7    36 1   
    19     8    37 1   
    20     9    10 1   
    21     9    11 1   
    22     9    38 1   
    23    10    39 1   
    24    11    12 1   
    25    11    40 1   
    26    11    41 1   
    27    12    13 2   
    28    12    42 1   
    29    13    14 1   
    30    13    43 1   
    31    14    15 ar  
    32    14    22 ar  
    33    15    16 ar  
    34    15    44 1   
    35    16    17 1   
    36    16    19 ar  
    37    17    18 1   
    38    17    45 1   
    39    18    46 1   
    40    18    47 1   
    41    18    48 1   
    42    19    20 ar  
    43    19    49 1   
    44    20    21 1   
    45    20    22 ar  
    46    21    50 1   
    47    22    23 1   
    48    23    24 2   
    49    23    25 1   
    50    25    26 1   
    51    26    27 1   
    52    26    51 1   
    53    27    52 1   
    54    27    53 1   
    55    27    54 1   
@<TRIPOS>SUBSTRUCTURE
     1 E62         1 TEMP              0 ****  ****    0 ROOT
