@<TRIPOS>MOLECULE
E63
   54    59     1     0     0
SMALL
No Charge or Current Charge


@<TRIPOS>ATOM
      1 O           -7.7330    -3.9850     0.6420 o          1 E63      -0.533000
      2 C1          -7.1190    -2.9650     0.3710 c          1 E63       0.570600
      3 C3          -5.6580    -2.7390     0.4120 ca         1 E63      -0.253600
      4 C4          -4.6130    -3.6290     0.6810 ca         1 E63       0.023000
      5 C5          -3.2980    -3.1170     0.6520 ca         1 E63      -0.212000
      6 C6          -3.0510    -1.7540     0.3720 ca         1 E63       0.370000
      7 C23         -4.1310    -0.8860     0.0950 ca         1 E63      -0.177000
      8 C2          -5.4270    -1.4070     0.1330 ca         1 E63       0.014800
      9 N2          -6.6280    -0.7630    -0.1160 na         1 E63      -0.166100
     10 N1          -7.6520    -1.7430     0.0210 ns         1 E63      -0.428200
     11 N3          -1.7230    -1.3240     0.3450 nu         1 E63      -0.924900
     12 C7          -1.0840    -0.1100     0.5370 ca         1 E63       0.421900
     13 N9          -1.8020     0.9370     0.9770 nb         1 E63      -0.253000
     14 C22         -1.1350     2.0930     1.1610 ca         1 E63       0.159900
     15 C15          0.2470     2.2180     0.8970 ca         1 E63       0.040000
     16 N8           0.9170     3.4630     1.1180 nu         1 E63      -0.984000
     17 C16          1.8790     4.1730     0.3940 ca         1 E63       0.294000
     18 C21          2.5720     5.2190     1.0220 ca         1 E63      -0.172500
     19 C20          3.5430     5.9540     0.3180 ca         1 E63      -0.071500
     20 C19          3.8170     5.6440    -1.0240 ca         1 E63      -0.148000
     21 C18          3.1170     4.6070    -1.6630 ca         1 E63      -0.071500
     22 C17          2.1470     3.8760    -0.9550 ca         1 E63      -0.172500
     23 C8           0.8930     1.0220     0.4540 ca         1 E63       0.438900
     24 N4           0.2280    -0.1320     0.2790 nb         1 E63      -0.302000
     25 N5           2.2740     1.0000     0.2550 nu         1 E63      -0.917900
     26 C9           3.1820     0.0120    -0.0490 cc         1 E63       0.237000
     27 C11          3.0290    -1.1650    -0.7090 cd         1 E63      -0.231000
     28 C10          4.3040    -1.7520    -0.8030 cd         1 E63       0.301300
     29 N7           5.2620    -1.0190    -0.2670 nc         1 E63      -0.512800
     30 N6           4.5520     0.0880     0.1900 na         1 E63      -0.045200
     31 C12          4.5820    -3.0600    -1.4510 cx         1 E63      -0.161000
     32 C14          3.6040    -4.2120    -1.3580 cx         1 E63      -0.122400
     33 C13          4.9170    -4.2770    -0.6170 cx         1 E63      -0.122400
     34 H4          -4.8070    -4.6770     0.9010 ha         1 E63       0.135000
     35 H5          -2.4670    -3.7870     0.8560 ha         1 E63       0.118000
     36 H21         -3.9700     0.1550    -0.1610 ha         1 E63       0.162000
     37 H3          -6.8020    -0.0990    -0.8660 hn         1 E63       0.316000
     38 H2          -8.6170    -1.5100     0.2370 hn         1 E63       0.339500
     39 H6          -1.0580    -2.0870     0.2330 hn         1 E63       0.515000
     40 H20         -1.7210     2.9390     1.5180 h4         1 E63       0.028100
     41 H14          0.5360     4.0100     1.8970 hn         1 E63       0.482000
     42 H19          2.3660     5.4620     2.0610 ha         1 E63       0.115000
     43 H18          4.0810     6.7600     0.8120 ha         1 E63       0.113000
     44 H17          4.5670     6.2110    -1.5710 ha         1 E63       0.117000
     45 H16          3.3210     4.3730    -2.7060 ha         1 E63       0.113000
     46 H15          1.5980     3.0890    -1.4620 ha         1 E63       0.115000
     47 H7           2.6750     1.9030     0.5150 hn         1 E63       0.524000
     48 H8           2.1050    -1.5720    -1.0980 ha         1 E63       0.161000
     49 H1           5.0230     0.8560     0.6590 hn         1 E63       0.369000
     50 H9           5.1240    -2.9510    -2.3870 hc         1 E63       0.094700
     51 H12          2.7010    -4.0780    -0.7670 hc         1 E63       0.073200
     52 H13          3.4840    -4.8460    -2.2340 hc         1 E63       0.073200
     53 H11          5.6800    -4.9550    -0.9930 hc         1 E63       0.073200
     54 H10          4.8930    -4.1750     0.4660 hc         1 E63       0.073200
@<TRIPOS>BOND
     1     1     2 2   
     2     2     3 1   
     3     2    10 1   
     4     3     4 ar  
     5     3     8 ar  
     6     4     5 ar  
     7     4    34 1   
     8     5     6 ar  
     9     5    35 1   
    10     6     7 ar  
    11     6    11 1   
    12     7     8 ar  
    13     7    36 1   
    14     8     9 1   
    15     9    10 1   
    16     9    37 1   
    17    10    38 1   
    18    11    12 1   
    19    11    39 1   
    20    12    13 ar  
    21    12    24 ar  
    22    13    14 ar  
    23    14    15 ar  
    24    14    40 1   
    25    15    16 1   
    26    15    23 ar  
    27    16    17 1   
    28    16    41 1   
    29    17    18 ar  
    30    17    22 ar  
    31    18    19 ar  
    32    18    42 1   
    33    19    20 ar  
    34    19    43 1   
    35    20    21 ar  
    36    20    44 1   
    37    21    22 ar  
    38    21    45 1   
    39    22    46 1   
    40    23    24 ar  
    41    23    25 1   
    42    25    26 1   
    43    25    47 1   
    44    26    27 2   
    45    26    30 1   
    46    27    28 1   
    47    27    48 1   
    48    28    29 2   
    49    28    31 1   
    50    29    30 1   
    51    30    49 1   
    52    31    32 1   
    53    31    33 1   
    54    31    50 1   
    55    32    33 1   
    56    32    51 1   
    57    32    52 1   
    58    33    53 1   
    59    33    54 1   
@<TRIPOS>SUBSTRUCTURE
     1 E63         1 TEMP              0 ****  ****    0 ROOT
