@<TRIPOS>MOLECULE
E63
   54    59     1     0     0
SMALL
abcg2


@<TRIPOS>ATOM
      1 O           -7.5210    -3.6230    -0.1160 o          1 E63      -0.533000
      2 C1          -6.8160    -2.6390     0.0600 c          1 E63       0.570600
      3 C3          -5.3680    -2.5040     0.0570 ca         1 E63      -0.253600
      4 C4          -4.3390    -3.4030    -0.2100 ca         1 E63       0.023000
      5 C5          -3.0440    -2.9500    -0.1520 ca         1 E63      -0.212000
      6 C6          -2.7470    -1.6000     0.1680 ca         1 E63       0.370000
      7 C23         -3.7710    -0.6990     0.4460 ca         1 E63      -0.177000
      8 C2          -5.0710    -1.1900     0.3970 ca         1 E63       0.014800
      9 N2          -6.2380    -0.5130     0.6810 na         1 E63      -0.166100
     10 N1          -7.2720    -1.3730     0.3220 ns         1 E63      -0.428200
     11 N3          -1.4010    -1.2830     0.1780 nu         1 E63      -0.924900
     12 C7          -0.7400    -0.1270     0.4810 ca         1 E63       0.421900
     13 N9          -1.4150     0.9570     0.8280 nb         1 E63      -0.253000
     14 C22         -0.6750     2.0340     1.0970 ca         1 E63       0.159900
     15 C15          0.6960     2.0510     1.0450 ca         1 E63       0.040000
     16 N8           1.4810     3.1810     1.3370 nu         1 E63      -0.984000
     17 C16          1.7500     4.1510     0.3800 ca         1 E63       0.294000
     18 C21          2.2740     5.3840     0.7830 ca         1 E63      -0.172500
     19 C20          2.5880     6.3540    -0.1540 ca         1 E63      -0.071500
     20 C19          2.3920     6.1230    -1.5110 ca         1 E63      -0.148000
     21 C18          1.8710     4.9010    -1.9110 ca         1 E63      -0.071500
     22 C17          1.5490     3.9200    -0.9830 ca         1 E63      -0.172500
     23 C8           1.3070     0.8290     0.6720 ca         1 E63       0.438900
     24 N4           0.5880    -0.2390     0.3900 nb         1 E63      -0.302000
     25 N5           2.6580     0.7740     0.6080 nu         1 E63      -0.917900
     26 C9           3.4320    -0.3180     0.2850 cc         1 E63       0.237000
     27 C11          3.1480    -1.5950    -0.1530 cd         1 E63      -0.231000
     28 C10          4.4160    -2.2010    -0.2950 cd         1 E63       0.301300
     29 N7           5.3880    -1.3700     0.0250 nc         1 E63      -0.512800
     30 N6           4.7730    -0.2320     0.3740 na         1 E63      -0.045200
     31 C12          4.7170    -3.5750    -0.7290 cx         1 E63      -0.161000
     32 C14          3.8660    -4.2440    -1.7740 cx         1 E63      -0.122400
     33 C13          3.7920    -4.7020    -0.3560 cx         1 E63      -0.122400
     34 H4          -4.5480    -4.4340    -0.4640 ha         1 E63       0.135000
     35 H5          -2.2270    -3.6320    -0.3540 ha         1 E63       0.118000
     36 H21         -3.5640     0.3280     0.6990 ha         1 E63       0.162000
     37 H3          -6.3440     0.4130     0.2860 hn         1 E63       0.316000
     38 H2          -8.1640    -1.2070     0.7650 hn         1 E63       0.339500
     39 H6          -0.7770    -2.0400    -0.0580 hn         1 E63       0.515000
     40 H20         -1.2120     2.9350     1.3750 h4         1 E63       0.028100
     41 H14          1.4380     3.5120     2.2890 hn         1 E63       0.482000
     42 H19          2.4320     5.5800     1.8370 ha         1 E63       0.115000
     43 H18          2.9890     7.3010     0.1840 ha         1 E63       0.113000
     44 H17          2.6390     6.8830    -2.2410 ha         1 E63       0.117000
     45 H16          1.7080     4.6990    -2.9620 ha         1 E63       0.113000
     46 H15          1.1370     2.9810    -1.3270 ha         1 E63       0.115000
     47 H7           3.1350     1.6190     0.8940 hn         1 E63       0.524000
     48 H8           2.1800    -2.0200    -0.3410 ha         1 E63       0.161000
     49 H1           5.3180     0.5620     0.6700 hn         1 E63       0.369000
     50 H9           5.7760    -3.8070    -0.7500 hc         1 E63       0.094700
     51 H12          3.0300    -3.6820    -2.1720 hc         1 E63       0.073200
     52 H13          4.3640    -4.8770    -2.4970 hc         1 E63       0.073200
     53 H11          4.2370    -5.6530    -0.0950 hc         1 E63       0.073200
     54 H10          2.9060    -4.4520     0.2150 hc         1 E63       0.073200
@<TRIPOS>BOND
     1     1     2 2   
     2     2     3 1   
     3     2    10 1   
     4     3     4 ar  
     5     3     8 ar  
     6     4     5 ar  
     7     4    34 1   
     8     5     6 ar  
     9     5    35 1   
    10     6     7 ar  
    11     6    11 1   
    12     7     8 ar  
    13     7    36 1   
    14     8     9 1   
    15     9    10 1   
    16     9    37 1   
    17    10    38 1   
    18    11    12 1   
    19    11    39 1   
    20    12    13 ar  
    21    12    24 ar  
    22    13    14 ar  
    23    14    15 ar  
    24    14    40 1   
    25    15    16 1   
    26    15    23 ar  
    27    16    17 1   
    28    16    41 1   
    29    17    18 ar  
    30    17    22 ar  
    31    18    19 ar  
    32    18    42 1   
    33    19    20 ar  
    34    19    43 1   
    35    20    21 ar  
    36    20    44 1   
    37    21    22 ar  
    38    21    45 1   
    39    22    46 1   
    40    23    24 ar  
    41    23    25 1   
    42    25    26 1   
    43    25    47 1   
    44    26    27 2   
    45    26    30 1   
    46    27    28 1   
    47    27    48 1   
    48    28    29 2   
    49    28    31 1   
    50    29    30 1   
    51    30    49 1   
    52    31    32 1   
    53    31    33 1   
    54    31    50 1   
    55    32    33 1   
    56    32    51 1   
    57    32    52 1   
    58    33    53 1   
    59    33    54 1   
@<TRIPOS>SUBSTRUCTURE
     1 E63         1 TEMP              0 ****  ****    0 ROOT
