@<TRIPOS>MOLECULE
E64
   54    53     1     0     0
SMALL
abcg2


@<TRIPOS>ATOM
      1 C1          14.5400    16.8370    15.9410 c          1 E64       0.730000
      2 O1          13.7210    16.5170    16.8060 o          1 E64      -0.720000
      3 O2          14.8070    18.0270    15.5920 o          1 E64      -0.720000
      4 C2          15.3380    15.7430    15.2250 c3         1 E64      -0.211400
      5 C3          15.0790    15.7370    13.7260 c3         1 E64       0.117300
      6 O3          13.7830    15.2460    13.4680 oh         1 E64      -0.639000
      7 C4          16.1730    14.9760    12.9740 c          1 E64       0.566100
      8 O4          17.3540    15.2120    13.1870 o          1 E64      -0.639100
      9 N1          15.7540    14.1030    12.0460 ns         1 E64      -0.486900
     10 C6          16.6510    13.5240    11.0690 c3         1 E64       0.037700
     11 C7          16.0190    12.2990    10.4210 c3         1 E64      -0.078400
     12 C8          15.8100    11.1130    11.3650 c3         1 E64      -0.061700
     13 C9          15.0090    10.0290    10.6500 c3         1 E64      -0.089100
     14 C10         17.1330    10.5510    11.8760 c3         1 E64      -0.089100
     15 C11         16.9670    14.5920    10.0180 c          1 E64       0.576100
     16 O5          16.1000    14.9970     9.2560 o          1 E64      -0.617100
     17 N2          18.2330    15.0280    10.0190 ns         1 E64      -0.495900
     18 C12         18.7300    16.1060     9.1910 c3         1 E64       0.101000
     19 C13         18.8780    17.4230     9.9470 c3         1 E64      -0.094400
     20 C14         17.5660    17.9600    10.5020 c3         1 E64      -0.110400
     21 C15         17.7340    19.3420    11.1240 c3         1 E64       0.065600
     22 N3          16.4950    19.8730    11.6650 nu         1 E64      -0.920000
     23 C16         15.9440    19.4660    12.8080 cz         1 E64       0.900600
     24 N4          16.6260    18.8080    13.7260 nv         1 E64      -0.607800
     25 N5          14.6670    19.7620    13.0600 nv         1 E64      -0.607800
     26 H21         16.4010    15.9310    15.3910 hc         1 E64       0.063700
     27 H22         15.1130    14.7560    15.6360 hc         1 E64       0.063700
     28 H3          15.1740    16.7640    13.3540 h1         1 E64       0.023700
     29 HO3         13.3710    15.7810    12.7850 ho         1 E64       0.434000
     30 HN1         14.7600    14.0040    11.9030 hn         1 E64       0.338500
     31 H6          17.5690    13.2290    11.5820 h1         1 E64       0.079700
     32 H71         15.0660    12.5900     9.9700 hc         1 E64       0.056700
     33 H72         16.6610    11.9800     9.5920 hc         1 E64       0.056700
     34 H8          15.2270    11.4500    12.2300 hc         1 E64       0.060700
     35 H91         14.8570     9.1600    11.2930 hc         1 E64       0.034700
     36 H92         14.0280    10.3950    10.3440 hc         1 E64       0.034700
     37 H93         15.5320     9.6890     9.7530 hc         1 E64       0.034700
     38 H101        16.9630     9.7060    12.5450 hc         1 E64       0.034700
     39 H102        17.7520    10.1980    11.0480 hc         1 E64       0.034700
     40 H103        17.7140    11.2870    12.4340 hc         1 E64       0.034700
     41 HN2         18.8540    14.6690    10.7260 hn         1 E64       0.326500
     42 H121        19.7000    15.8090     8.7880 h1         1 E64       0.062200
     43 H122        18.0540    16.2270     8.3470 h1         1 E64       0.062200
     44 H131        19.6020    17.2960    10.7590 hc         1 E64       0.048200
     45 H132        19.3180    18.1490     9.2570 hc         1 E64       0.048200
     46 H141        16.8200    18.0170     9.7040 hc         1 E64       0.062200
     47 H142        17.1770    17.2710    11.2560 hc         1 E64       0.062200
     48 H151        18.5020    19.3350    11.8990 h1         1 E64       0.065700
     49 H152        18.0780    20.0560    10.3760 h1         1 E64       0.065700
     50 HN3         15.8870    20.3450    11.0140 hn         1 E64       0.345000
     51 HN41        16.0900    18.4360    14.5400 hn         1 E64       0.390000
     52 HN42        17.6070    18.6120    13.6240 hn         1 E64       0.390000
     53 HN51        14.0530    20.0540    12.3190 hn         1 E64       0.390000
     54 HN52        14.2440    19.4070    13.9060 hn         1 E64       0.390000
@<TRIPOS>BOND
     1     1     2 1   
     2     1     3 1   
     3     1     4 1   
     4     4     5 1   
     5     4    26 1   
     6     4    27 1   
     7     5     6 1   
     8     5     7 1   
     9     5    28 1   
    10     6    29 1   
    11     7     8 2   
    12     7     9 1   
    13     9    10 1   
    14     9    30 1   
    15    10    11 1   
    16    10    15 1   
    17    10    31 1   
    18    11    12 1   
    19    11    32 1   
    20    11    33 1   
    21    12    13 1   
    22    12    14 1   
    23    12    34 1   
    24    13    35 1   
    25    13    36 1   
    26    13    37 1   
    27    14    38 1   
    28    14    39 1   
    29    14    40 1   
    30    15    16 2   
    31    15    17 1   
    32    17    18 1   
    33    17    41 1   
    34    18    19 1   
    35    18    42 1   
    36    18    43 1   
    37    19    20 1   
    38    19    44 1   
    39    19    45 1   
    40    20    21 1   
    41    20    46 1   
    42    20    47 1   
    43    21    22 1   
    44    21    48 1   
    45    21    49 1   
    46    22    23 2   
    47    22    50 1   
    48    23    24 1   
    49    23    25 1   
    50    24    51 1   
    51    24    52 1   
    52    25    53 1   
    53    25    54 1   
@<TRIPOS>SUBSTRUCTURE
     1 E64         1 TEMP              0 ****  ****    0 ROOT
