@<TRIPOS>MOLECULE
E64
   54    53     1     0     0
SMALL
No Charge or Current Charge


@<TRIPOS>ATOM
      1 C1          14.1100    16.8730    15.7900 c          1 E64       0.730000
      2 O1          12.9540    16.8750    16.1820 o          1 E64      -0.720000
      3 O2          14.8120    17.8710    15.7190 o          1 E64      -0.720000
      4 C2          14.6800    15.5690    15.2400 c3         1 E64      -0.211400
      5 C3          14.4080    15.4980    13.7100 c3         1 E64       0.117300
      6 O3          13.2930    14.6060    13.4700 oh         1 E64      -0.639000
      7 C4          15.6800    15.1180    12.8730 c          1 E64       0.566100
      8 O4          16.7550    15.6960    12.9870 o          1 E64      -0.639100
      9 N1          15.5160    14.0880    11.9740 ns         1 E64      -0.486900
     10 C6          16.5510    13.6590    11.0120 c3         1 E64       0.037700
     11 C7          16.2220    12.2700    10.4060 c3         1 E64      -0.078400
     12 C8          16.0630    11.1100    11.4310 c3         1 E64      -0.061700
     13 C9          15.6330     9.8050    10.7230 c3         1 E64      -0.089100
     14 C10         17.3380    10.8790    12.2780 c3         1 E64      -0.089100
     15 C11         16.7080    14.7400     9.9030 c          1 E64       0.576100
     16 O5          15.7590    15.3360     9.4070 o          1 E64      -0.617100
     17 N2          18.0110    15.0020     9.5300 ns         1 E64      -0.495900
     18 C12         18.4290    16.1290     8.6890 c3         1 E64       0.101000
     19 C13         18.8310    17.3620     9.5330 c3         1 E64      -0.094400
     20 C14         17.6560    18.0380    10.2850 c3         1 E64      -0.110400
     21 C15         18.1090    19.1780    11.2150 c3         1 E64       0.065600
     22 N3          16.9410    19.8020    11.8680 nu         1 E64      -0.920000
     23 C16         16.4470    19.5840    13.0690 cz         1 E64       0.900600
     24 N4          16.7150    18.4930    13.7140 nv         1 E64      -0.607800
     25 N5          15.5520    20.3980    13.5370 nv         1 E64      -0.607800
     26 H21         15.7670    15.5770    15.3730 hc         1 E64       0.063700
     27 H22         14.1980    14.7060    15.7130 hc         1 E64       0.063700
     28 H3          14.1340    16.5010    13.3550 h1         1 E64       0.023700
     29 HO3         12.5370    14.9420    13.9990 ho         1 E64       0.434000
     30 HN1         14.5870    13.6810    11.9380 hn         1 E64       0.338500
     31 H6          17.5090    13.5990    11.5440 h1         1 E64       0.079700
     32 H71         15.2970    12.3570     9.8230 hc         1 E64       0.056700
     33 H72         17.0110    12.0050     9.6910 hc         1 E64       0.056700
     34 H8          15.2540    11.3750    12.1240 hc         1 E64       0.060700
     35 H91         15.4670     9.0040    11.4520 hc         1 E64       0.034700
     36 H92         14.6980     9.9540    10.1680 hc         1 E64       0.034700
     37 H93         16.4020     9.4720    10.0160 hc         1 E64       0.034700
     38 H101        17.2030    10.0280    12.9550 hc         1 E64       0.034700
     39 H102        18.2020    10.6700    11.6350 hc         1 E64       0.034700
     40 H103        17.5680    11.7560    12.8940 hc         1 E64       0.034700
     41 HN2         18.7330    14.4550     9.9840 hn         1 E64       0.326500
     42 H121        19.2930    15.8080     8.0920 h1         1 E64       0.062200
     43 H122        17.6250    16.3990     7.9910 h1         1 E64       0.062200
     44 H131        19.6010    17.0620    10.2540 hc         1 E64       0.048200
     45 H132        19.2940    18.1030     8.8700 hc         1 E64       0.048200
     46 H141        16.9380    18.4270     9.5520 hc         1 E64       0.062200
     47 H142        17.1250    17.2920    10.8830 hc         1 E64       0.062200
     48 H151        18.8140    18.7860    11.9630 h1         1 E64       0.065700
     49 H152        18.6480    19.9310    10.6220 h1         1 E64       0.065700
     50 HN3         16.5150    20.5660    11.3540 hn         1 E64       0.345000
     51 HN41        16.1760    18.2540    14.5380 hn         1 E64       0.390000
     52 HN42        17.0960    17.6980    13.2210 hn         1 E64       0.390000
     53 HN51        15.3310    21.2620    13.0710 hn         1 E64       0.390000
     54 HN52        15.0900    20.2280    14.4160 hn         1 E64       0.390000
@<TRIPOS>BOND
     1     1     2 1   
     2     1     3 1   
     3     1     4 1   
     4     4     5 1   
     5     4    26 1   
     6     4    27 1   
     7     5     6 1   
     8     5     7 1   
     9     5    28 1   
    10     6    29 1   
    11     7     8 2   
    12     7     9 1   
    13     9    10 1   
    14     9    30 1   
    15    10    11 1   
    16    10    15 1   
    17    10    31 1   
    18    11    12 1   
    19    11    32 1   
    20    11    33 1   
    21    12    13 1   
    22    12    14 1   
    23    12    34 1   
    24    13    35 1   
    25    13    36 1   
    26    13    37 1   
    27    14    38 1   
    28    14    39 1   
    29    14    40 1   
    30    15    16 2   
    31    15    17 1   
    32    17    18 1   
    33    17    41 1   
    34    18    19 1   
    35    18    42 1   
    36    18    43 1   
    37    19    20 1   
    38    19    44 1   
    39    19    45 1   
    40    20    21 1   
    41    20    46 1   
    42    20    47 1   
    43    21    22 1   
    44    21    48 1   
    45    21    49 1   
    46    22    23 2   
    47    22    50 1   
    48    23    24 1   
    49    23    25 1   
    50    24    51 1   
    51    24    52 1   
    52    25    53 1   
    53    25    54 1   
@<TRIPOS>SUBSTRUCTURE
     1 E64         1 TEMP              0 ****  ****    0 ROOT
