@<TRIPOS>MOLECULE
E65
   37    38     1     0     0
SMALL
No Charge or Current Charge


@<TRIPOS>ATOM
      1 N1           5.4180    -0.6610    -0.0110 nb         1 E65      -0.195500
      2 C2           4.1200    -0.2890    -0.0140 ca         1 E65       0.227300
      3 N3           3.6650     0.9830    -0.0240 nb         1 E65      -0.195500
      4 C4           4.5870     1.9670    -0.0340 ca         1 E65       0.144800
      5 C5           5.9610     1.6760    -0.0290 ca         1 E65      -0.231000
      6 C6           6.3400     0.3230    -0.0160 ca         1 E65       0.144800
      7 S7           2.9160    -1.6150    -0.0040 ss         1 E65      -0.233300
      8 C8           1.2670    -0.7460    -0.0080 c3         1 E65      -0.088400
      9 C9           0.0520    -1.6930    -0.0010 c          1 E65       0.589700
     10 O10          0.2030    -2.9100     0.0080 o          1 E65      -0.494100
     11 C11          4.0730     3.3940    -0.0420 c3         1 E65      -0.151400
     12 C12          7.7980    -0.0950    -0.0160 c3         1 E65      -0.151400
     13 C13         -1.3420    -1.0890    -0.0040 ca         1 E65      -0.120600
     14 C14         -2.4760    -1.9350     0.0030 ca         1 E65      -0.085500
     15 C15         -3.7760    -1.4020     0.0000 ca         1 E65      -0.025500
     16 C16         -3.9690    -0.0070    -0.0110 ca         1 E65      -0.239500
     17 C17         -2.8490     0.8480    -0.0160 ca         1 E65      -0.025500
     18 C18         -1.5490     0.3130    -0.0130 ca         1 E65      -0.085500
     19 S19         -5.6330     0.6780    -0.0140 sy         1 E65       1.127600
     20 O20         -5.6300     2.0570    -0.4980 o          1 E65      -0.540500
     21 O21         -6.6050    -0.3090    -0.4780 o          1 E65      -0.540500
     22 N22         -5.9750     0.8330     1.5730 n8         1 E65      -1.010100
     23 H5           6.7040     2.4690    -0.0350 ha         1 E65       0.133000
     24 H8           1.1960    -0.1050     0.8780 h1         1 E65       0.100200
     25 H8A          1.1940    -0.1170    -0.9040 h1         1 E65       0.100200
     26 H11          3.8090     3.7180     0.9720 hc         1 E65       0.057367
     27 H11A         4.8290     4.0880    -0.4290 hc         1 E65       0.057367
     28 H11B         3.1800     3.4940    -0.6710 hc         1 E65       0.057367
     29 H12          8.1310    -0.3470    -1.0300 hc         1 E65       0.057367
     30 H12A         8.4430     0.7080     0.3590 hc         1 E65       0.057367
     31 H12B         7.9610    -0.9740     0.6200 hc         1 E65       0.057367
     32 H14         -2.3550    -3.0170     0.0120 ha         1 E65       0.133000
     33 H15         -4.6300    -2.0780     0.0080 ha         1 E65       0.140500
     34 H17         -2.9810     1.9290    -0.0210 ha         1 E65       0.140500
     35 H18         -0.7120     1.0070    -0.0180 ha         1 E65       0.133000
     36 HN22        -6.2670     1.8070     1.6030 hn         1 E65       0.477000
     37 HN2A        -6.8660     0.3420     1.6160 hn         1 E65       0.477000
@<TRIPOS>BOND
     1     1     2 ar  
     2     1     6 ar  
     3     2     3 ar  
     4     2     7 1   
     5     3     4 ar  
     6     4     5 ar  
     7     4    11 1   
     8     5     6 ar  
     9     5    23 1   
    10     6    12 1   
    11     7     8 1   
    12     8     9 1   
    13     8    24 1   
    14     8    25 1   
    15     9    10 2   
    16     9    13 1   
    17    11    26 1   
    18    11    27 1   
    19    11    28 1   
    20    12    29 1   
    21    12    30 1   
    22    12    31 1   
    23    13    14 ar  
    24    13    18 ar  
    25    14    15 ar  
    26    14    32 1   
    27    15    16 ar  
    28    15    33 1   
    29    16    17 ar  
    30    16    19 1   
    31    17    18 ar  
    32    17    34 1   
    33    18    35 1   
    34    19    20 2   
    35    19    21 2   
    36    19    22 1   
    37    22    36 1   
    38    22    37 1   
@<TRIPOS>SUBSTRUCTURE
     1 E65         1 TEMP              0 ****  ****    0 ROOT
