@<TRIPOS>MOLECULE
E65
   37    38     1     0     0
SMALL
abcg2


@<TRIPOS>ATOM
      1 N1           5.2110    -0.6620     0.0430 nb         1 E65      -0.195500
      2 C2           3.9630    -0.2180     0.0210 ca         1 E65       0.227300
      3 N3           3.5640     1.0380    -0.0250 nb         1 E65      -0.195500
      4 C4           4.5200     1.9690    -0.0530 ca         1 E65       0.144800
      5 C5           5.8590     1.6120    -0.0340 ca         1 E65      -0.231000
      6 C6           6.1720     0.2570     0.0150 ca         1 E65       0.144800
      7 S7           2.7780    -1.5150     0.0540 ss         1 E65      -0.233300
      8 C8           1.2370    -0.5730     0.0180 c3         1 E65      -0.088400
      9 C9           0.0850    -1.5420     0.0020 c          1 E65       0.589700
     10 O10          0.2750    -2.7370     0.0010 o          1 E65      -0.494100
     11 C11          4.0780     3.3940    -0.0950 c3         1 E65      -0.151400
     12 C12          7.5850    -0.2270     0.0220 c3         1 E65      -0.151400
     13 C13         -1.2960    -0.9810    -0.0150 ca         1 E65      -0.120600
     14 C14         -2.3740    -1.8630    -0.0710 ca         1 E65      -0.085500
     15 C15         -3.6730    -1.3840    -0.0930 ca         1 E65      -0.025500
     16 C16         -3.8860    -0.0140    -0.0480 ca         1 E65      -0.239500
     17 C17         -2.8290     0.8810     0.0080 ca         1 E65      -0.025500
     18 C18         -1.5340     0.3920     0.0210 ca         1 E65      -0.085500
     19 S19         -5.5440     0.6220    -0.0590 sy         1 E65       1.127600
     20 O20         -5.5450     1.9330    -0.6890 o          1 E65      -0.540500
     21 O21         -6.4100    -0.4170    -0.5950 o          1 E65      -0.540500
     22 N22         -5.7860     0.8890     1.5500 n8         1 E65      -1.010100
     23 H5           6.6360     2.3620    -0.0560 ha         1 E65       0.133000
     24 H8           1.1720     0.0830     0.8880 h1         1 E65       0.100200
     25 H8A          1.2030     0.0660    -0.8670 h1         1 E65       0.100200
     26 H11          3.5600     3.6540     0.8290 hc         1 E65       0.057367
     27 H11A         4.9180     4.0740    -0.2190 hc         1 E65       0.057367
     28 H11B         3.3750     3.5530    -0.9130 hc         1 E65       0.057367
     29 H12          7.8210    -0.7010    -0.9320 hc         1 E65       0.057367
     30 H12A         8.2890     0.5870     0.1780 hc         1 E65       0.057367
     31 H12B         7.7320    -0.9760     0.7990 hc         1 E65       0.057367
     32 H14         -2.2040    -2.9300    -0.1030 ha         1 E65       0.133000
     33 H15         -4.5000    -2.0780    -0.1450 ha         1 E65       0.140500
     34 H17         -2.9980     1.9490     0.0370 ha         1 E65       0.140500
     35 H18         -0.7210     1.1030     0.0600 ha         1 E65       0.133000
     36 HN22        -6.4890     1.6030     1.7120 hn         1 E65       0.477000
     37 HN2A        -6.0110     0.0430     2.0640 hn         1 E65       0.477000
@<TRIPOS>BOND
     1     1     2 ar  
     2     1     6 ar  
     3     2     3 ar  
     4     2     7 1   
     5     3     4 ar  
     6     4     5 ar  
     7     4    11 1   
     8     5     6 ar  
     9     5    23 1   
    10     6    12 1   
    11     7     8 1   
    12     8     9 1   
    13     8    24 1   
    14     8    25 1   
    15     9    10 2   
    16     9    13 1   
    17    11    26 1   
    18    11    27 1   
    19    11    28 1   
    20    12    29 1   
    21    12    30 1   
    22    12    31 1   
    23    13    14 ar  
    24    13    18 ar  
    25    14    15 ar  
    26    14    32 1   
    27    15    16 ar  
    28    15    33 1   
    29    16    17 ar  
    30    16    19 1   
    31    17    18 ar  
    32    17    34 1   
    33    18    35 1   
    34    19    20 2   
    35    19    21 2   
    36    19    22 1   
    37    22    36 1   
    38    22    37 1   
@<TRIPOS>SUBSTRUCTURE
     1 E65         1 TEMP              0 ****  ****    0 ROOT
