@<TRIPOS>MOLECULE
E66
   64    67     1     0     0
SMALL
abcg2


@<TRIPOS>ATOM
      1 C7          -1.2280    -3.1780   -10.7710 ca         1 E66      -0.102000
      2 C30         -0.5520    -3.8300   -12.9580 ca         1 E66      -0.102000
      3 C6          -1.0650    -4.4800   -10.3300 ca         1 E66      -0.105500
      4 C31         -0.3930    -5.1390   -12.5140 ca         1 E66      -0.105500
      5 C8          -0.9700    -2.8290   -12.0950 ca         1 E66      -0.106300
      6 C5          -0.6420    -5.4960   -11.1920 ca         1 E66      -0.065300
      7 C11         -2.2760    -1.5150   -14.6600 cc         1 E66       0.772200
      8 C28         -4.2500    -2.0460   -15.1170 cd         1 E66       0.469500
      9 C18         -5.4020    -2.5020   -17.4890 cc         1 E66      -0.314000
     10 C14         -4.0670    -2.1120   -17.5070 cd         1 E66       0.392000
     11 C19         -6.0780    -2.6400   -16.2790 cc         1 E66       0.435300
     12 C22         -9.4180    -3.5600   -17.6690 c6         1 E66       0.129300
     13 C26         -7.5690    -5.0480   -17.5040 c6         1 E66       0.129300
     14 C23         -9.7830    -4.2080   -18.9920 c6         1 E66       0.153600
     15 C25         -7.9790    -5.6630   -18.8290 c6         1 E66       0.153600
     16 C1          -1.8040    -7.4170   -10.0950 c3         1 E66      -0.081767
     17 C3           0.5910    -6.9200    -9.5590 c3         1 E66      -0.081767
     18 C4          -0.0240    -7.8890   -11.7600 c3         1 E66      -0.081767
     19 C16         -2.4100    -0.8820   -18.8480 c3         1 E66       0.193600
     20 C17         -3.8760    -2.5300   -19.8560 c3         1 E66       0.193600
     21 C9          -1.1100    -1.3850   -12.5240 c3         1 E66       0.277100
     22 C20         -7.5450    -2.9860   -16.2630 c3         1 E66       0.111500
     23 C2          -0.4700    -6.9170   -10.6670 c3         1 E66       0.000300
     24 N29         -3.4590    -1.7990   -14.0860 nc         1 E66      -0.435300
     25 N12         -2.2440    -1.5720   -15.9840 nd         1 E66      -0.692100
     26 N27         -5.5210    -2.4200   -15.0980 nd         1 E66      -0.693000
     27 N13         -3.5260    -1.8890   -16.2810 na         1 E66       0.060900
     28 N10         -1.1860    -1.1600   -13.9430 nu         1 E66      -0.870400
     29 N15         -3.3180    -2.0020   -18.6270 nh         1 E66      -0.790400
     30 N21         -7.9850    -3.6580   -17.4590 n3         1 E66      -0.732600
     31 O24         -9.3680    -5.5540   -19.0440 os         1 E66      -0.448000
     32 H1          -1.5630    -2.4190   -10.0720 ha         1 E66       0.109500
     33 H2          -0.3420    -3.6030   -13.9970 ha         1 E66       0.109500
     34 H3          -1.2780    -4.7030    -9.2920 ha         1 E66       0.110000
     35 H4          -0.0670    -5.8830   -13.2280 ha         1 E66       0.110000
     36 H5          -5.9370    -2.6710   -18.4100 ha         1 E66       0.155000
     37 H6          -9.7110    -2.5080   -17.6980 h1         1 E66       0.045700
     38 H7          -9.9890    -4.0360   -16.8540 h1         1 E66       0.045700
     39 H8          -8.0050    -5.6260   -16.6710 h1         1 E66       0.045700
     40 H9          -6.4820    -5.1160   -17.4090 h1         1 E66       0.045700
     41 H10         -9.3280    -3.6330   -19.8110 h1         1 E66       0.049700
     42 H11        -10.8650    -4.1930   -19.1310 h1         1 E66       0.049700
     43 H12         -7.7290    -6.7250   -18.8440 h1         1 E66       0.049700
     44 H13         -7.4230    -5.1720   -19.6400 h1         1 E66       0.049700
     45 H14         -2.1530    -6.8000    -9.2670 hc         1 E66       0.034811
     46 H15         -2.5830    -7.4230   -10.8600 hc         1 E66       0.034811
     47 H16         -1.6950    -8.4370    -9.7200 hc         1 E66       0.034811
     48 H17          0.3110    -6.2760    -8.7240 hc         1 E66       0.034811
     49 H18          0.7250    -7.9290    -9.1640 hc         1 E66       0.034811
     50 H19          1.5550    -6.5780    -9.9380 hc         1 E66       0.034811
     51 H20          0.0900    -8.8880   -11.3370 hc         1 E66       0.034811
     52 H21         -0.7520    -7.9570   -12.5700 hc         1 E66       0.034811
     53 H22          0.9380    -7.6060   -12.1910 hc         1 E66       0.034811
     54 H23         -1.9920    -0.5180   -17.9180 h1         1 E66       0.049700
     55 H24         -1.5920    -1.2100   -19.4870 h1         1 E66       0.049700
     56 H25         -2.9330    -0.0630   -19.3490 h1         1 E66       0.049700
     57 H26         -4.2960    -3.5220   -19.6980 h1         1 E66       0.049700
     58 H27         -4.6490    -1.8830   -20.2820 h1         1 E66       0.049700
     59 H28         -3.0720    -2.6210   -20.5840 h1         1 E66       0.049700
     60 H29         -0.2530    -0.8170   -12.1570 h1         1 E66       0.066200
     61 H30         -1.9870    -0.9480   -12.0410 h1         1 E66       0.066200
     62 H31         -8.0950    -2.0440   -16.1720 h1         1 E66       0.063200
     63 H32         -7.7600    -3.5530   -15.3440 h1         1 E66       0.063200
     64 H33         -0.3200    -1.1030   -14.4530 hn         1 E66       0.492000
@<TRIPOS>BOND
     1     1     3 ar  
     2     1     5 ar  
     3     1    32 1   
     4     2     4 ar  
     5     2     5 ar  
     6     2    33 1   
     7     3     6 ar  
     8     3    34 1   
     9     4     6 ar  
    10     4    35 1   
    11     5    21 1   
    12     6    23 1   
    13     7    24 1   
    14     7    25 2   
    15     7    28 1   
    16     8    24 2   
    17     8    26 1   
    18     8    27 1   
    19     9    10 2   
    20     9    11 1   
    21     9    36 1   
    22    10    27 1   
    23    10    29 1   
    24    11    22 1   
    25    11    26 2   
    26    12    14 1   
    27    12    30 1   
    28    12    37 1   
    29    12    38 1   
    30    13    15 1   
    31    13    30 1   
    32    13    39 1   
    33    13    40 1   
    34    14    31 1   
    35    14    41 1   
    36    14    42 1   
    37    15    31 1   
    38    15    43 1   
    39    15    44 1   
    40    16    23 1   
    41    16    45 1   
    42    16    46 1   
    43    16    47 1   
    44    17    23 1   
    45    17    48 1   
    46    17    49 1   
    47    17    50 1   
    48    18    23 1   
    49    18    51 1   
    50    18    52 1   
    51    18    53 1   
    52    19    29 1   
    53    19    54 1   
    54    19    55 1   
    55    19    56 1   
    56    20    29 1   
    57    20    57 1   
    58    20    58 1   
    59    20    59 1   
    60    21    28 1   
    61    21    60 1   
    62    21    61 1   
    63    22    30 1   
    64    22    62 1   
    65    22    63 1   
    66    25    27 1   
    67    28    64 1   
@<TRIPOS>SUBSTRUCTURE
     1 E66         1 TEMP              0 ****  ****    0 ROOT
