@<TRIPOS>MOLECULE
E66
   64    67     1     0     0
SMALL
No Charge or Current Charge


@<TRIPOS>ATOM
      1 C7          -2.0710    -3.5250   -11.8830 ca         1 E66      -0.102000
      2 C30          0.3070    -3.4180   -12.3270 ca         1 E66      -0.102000
      3 C6          -1.9600    -4.9020   -11.6270 ca         1 E66      -0.105500
      4 C31          0.4200    -4.7960   -12.0710 ca         1 E66      -0.105500
      5 C8          -0.9380    -2.7720   -12.2360 ca         1 E66      -0.106300
      6 C5          -0.7150    -5.5680   -11.7160 ca         1 E66      -0.065300
      7 C11         -2.2340    -1.2500   -14.7360 cc         1 E66       0.772200
      8 C28         -4.2120    -1.5230   -15.2220 cd         1 E66       0.469500
      9 C18         -5.3450    -2.0190   -17.5410 cc         1 E66      -0.314000
     10 C14         -3.9810    -1.8190   -17.5980 cd         1 E66       0.392000
     11 C19         -6.0920    -1.9520   -16.3110 cc         1 E66       0.435300
     12 C22         -9.4800    -3.6230   -17.2050 c6         1 E66       0.129300
     13 C26         -7.5010    -4.6880   -16.1960 c6         1 E66       0.129300
     14 C23         -9.8750    -5.0000   -17.8190 c6         1 E66       0.153600
     15 C25         -7.9400    -6.0420   -16.8300 c6         1 E66       0.153600
     16 C1          -1.5560    -7.8480   -12.4260 c3         1 E66      -0.081767
     17 C3          -1.1230    -7.3630    -9.9770 c3         1 E66      -0.081767
     18 C4           0.7980    -7.6680   -11.5680 c3         1 E66      -0.081767
     19 C16         -1.9530    -1.1530   -18.9910 c3         1 E66       0.193600
     20 C17         -3.7430    -2.6120   -19.9860 c3         1 E66       0.193600
     21 C9          -1.0570    -1.2800   -12.5220 c3         1 E66       0.277100
     22 C20         -7.5940    -2.1960   -16.4140 c3         1 E66       0.111500
     23 C2          -0.6390    -7.0920   -11.4270 c3         1 E66       0.000300
     24 N29         -3.4690    -1.3120   -14.1690 nc         1 E66      -0.435300
     25 N12         -2.0760    -1.3880   -16.0310 nd         1 E66      -0.692100
     26 N27         -5.5710    -1.7030   -15.1080 nd         1 E66      -0.693000
     27 N13         -3.4090    -1.5490   -16.3370 na         1 E66       0.060900
     28 N10         -1.1480    -1.0470   -13.9680 nu         1 E66      -0.870400
     29 N15         -3.2310    -1.8850   -18.7990 nh         1 E66      -0.790400
     30 N21         -8.0040    -3.5180   -16.9850 n3         1 E66      -0.732600
     31 O24         -9.3780    -6.0800   -16.9920 os         1 E66      -0.448000
     32 H1          -3.0440    -3.0440   -11.8080 ha         1 E66       0.109500
     33 H2           1.1950    -2.8520   -12.6000 ha         1 E66       0.109500
     34 H3          -2.8590    -5.4500   -11.3590 ha         1 E66       0.110000
     35 H4           1.4060    -5.2430   -12.1580 ha         1 E66       0.110000
     36 H5          -5.9040    -2.2310   -18.4430 ha         1 E66       0.155000
     37 H6          -9.8240    -2.8250   -17.8800 h1         1 E66       0.045700
     38 H7         -10.0180    -3.4960   -16.2540 h1         1 E66       0.045700
     39 H8          -7.8810    -4.6440   -15.1640 h1         1 E66       0.045700
     40 H9          -6.4030    -4.6720   -16.1360 h1         1 E66       0.045700
     41 H10         -9.4550    -5.0940   -18.8310 h1         1 E66       0.049700
     42 H11        -10.9690    -5.0770   -17.8930 h1         1 E66       0.049700
     43 H12         -7.6280    -6.8760   -16.1860 h1         1 E66       0.049700
     44 H13         -7.4610    -6.1690   -17.8110 h1         1 E66       0.049700
     45 H14         -2.6060    -7.5550   -12.3150 hc         1 E66       0.034811
     46 H15         -1.2550    -7.6400   -13.4610 hc         1 E66       0.034811
     47 H16         -1.4980    -8.9320   -12.2690 hc         1 E66       0.034811
     48 H17         -2.1680    -7.0650    -9.8360 hc         1 E66       0.034811
     49 H18         -1.0490    -8.4300    -9.7320 hc         1 E66       0.034811
     50 H19         -0.5120    -6.8070    -9.2560 hc         1 E66       0.034811
     51 H20          0.8110    -8.7440   -11.3560 hc         1 E66       0.034811
     52 H21          1.1830    -7.5290   -12.5850 hc         1 E66       0.034811
     53 H22          1.4880    -7.1870   -10.8630 hc         1 E66       0.034811
     54 H23         -1.9790    -0.1840   -18.4750 h1         1 E66       0.049700
     55 H24         -1.1110    -1.7380   -18.5980 h1         1 E66       0.049700
     56 H25         -1.7650    -0.9580   -20.0550 h1         1 E66       0.049700
     57 H26         -4.2570    -3.5350   -19.6840 h1         1 E66       0.049700
     58 H27         -4.4530    -1.9860   -20.5430 h1         1 E66       0.049700
     59 H28         -2.9240    -2.8910   -20.6630 h1         1 E66       0.049700
     60 H29         -0.1760    -0.7640   -12.1140 h1         1 E66       0.066200
     61 H30         -1.9360    -0.8710   -12.0040 h1         1 E66       0.066200
     62 H31         -8.0060    -1.3870   -17.0310 h1         1 E66       0.063200
     63 H32         -8.0340    -2.0740   -15.4140 h1         1 E66       0.063200
     64 H33         -0.3020    -1.1500   -14.5170 hn         1 E66       0.492000
@<TRIPOS>BOND
     1     1     3 ar  
     2     1     5 ar  
     3     1    32 1   
     4     2     4 ar  
     5     2     5 ar  
     6     2    33 1   
     7     3     6 ar  
     8     3    34 1   
     9     4     6 ar  
    10     4    35 1   
    11     5    21 1   
    12     6    23 1   
    13     7    24 1   
    14     7    25 2   
    15     7    28 1   
    16     8    24 2   
    17     8    26 1   
    18     8    27 1   
    19     9    10 2   
    20     9    11 1   
    21     9    36 1   
    22    10    27 1   
    23    10    29 1   
    24    11    22 1   
    25    11    26 2   
    26    12    14 1   
    27    12    30 1   
    28    12    37 1   
    29    12    38 1   
    30    13    15 1   
    31    13    30 1   
    32    13    39 1   
    33    13    40 1   
    34    14    31 1   
    35    14    41 1   
    36    14    42 1   
    37    15    31 1   
    38    15    43 1   
    39    15    44 1   
    40    16    23 1   
    41    16    45 1   
    42    16    46 1   
    43    16    47 1   
    44    17    23 1   
    45    17    48 1   
    46    17    49 1   
    47    17    50 1   
    48    18    23 1   
    49    18    51 1   
    50    18    52 1   
    51    18    53 1   
    52    19    29 1   
    53    19    54 1   
    54    19    55 1   
    55    19    56 1   
    56    20    29 1   
    57    20    57 1   
    58    20    58 1   
    59    20    59 1   
    60    21    28 1   
    61    21    60 1   
    62    21    61 1   
    63    22    30 1   
    64    22    62 1   
    65    22    63 1   
    66    25    27 1   
    67    28    64 1   
@<TRIPOS>SUBSTRUCTURE
     1 E66         1 TEMP              0 ****  ****    0 ROOT
