@<TRIPOS>MOLECULE
E67
   87    90     1     0     0
SMALL
abcg2


@<TRIPOS>ATOM
      1 N1           0.7190    -0.6620     0.5690 nb         1 E67      -0.345000
      2 C2          -0.3290    -1.4890     0.3670 ca         1 E67       0.424900
      3 N3          -1.5820    -1.1410     0.1730 nb         1 E67      -0.294000
      4 C4          -1.8290     0.1920     0.1480 ca         1 E67       0.117000
      5 C5          -0.8240     1.1560     0.3130 ca         1 E67      -0.222000
      6 C6           0.4970     0.6350     0.5430 ca         1 E67       0.442900
      7 CAA         -3.4720     1.9630    -0.0730 ca         1 E67       0.172100
      8 CAB         -2.4430     2.9400     0.0840 ca         1 E67       0.083100
      9 CAC         -1.1520     2.5290     0.2790 ca         1 E67      -0.129000
     10 CAF         -3.1600     0.6260    -0.0430 ca         1 E67      -0.208000
     11 OAK         -4.7010     2.4630    -0.2400 os         1 E67      -0.326100
     12 OAL         -2.8610     4.2200     0.0290 os         1 E67      -0.320100
     13 CAM         -1.8870     5.2360     0.1360 c3         1 E67       0.144900
     14 NAN          1.5360     1.4570     0.7550 nu         1 E67      -0.930100
     15 CAO          2.8800     1.0090     1.0550 c6         1 E67       0.242500
     16 CAP          3.6550     2.1300     1.7340 c6         1 E67      -0.092900
     17 CAQ          5.0740     1.6840     2.0450 c6         1 E67       0.168800
     18 NAR          5.7670     1.2400     0.8480 n3         1 E67      -0.721600
     19 CAS          5.0640     0.1400     0.2110 c6         1 E67       0.168800
     20 CAT          3.6490     0.5380    -0.1750 c6         1 E67      -0.092900
     21 NAU         -0.0130    -2.8030     0.3510 nu         1 E67      -0.924100
     22 CAV         -0.9920    -3.8600     0.3030 c3         1 E67       0.235800
     23 CAW         -0.3050    -5.2010     0.0930 c3         1 E67      -0.097400
     24 CAX         -1.3170    -6.3380     0.0530 c3         1 E67       0.168800
     25 NAY         -0.7070    -7.6520    -0.0370 n3         1 E67      -0.714600
     26 CAZ         -1.6780    -8.6920     0.2270 c3         1 E67       0.149600
     27 CBA         -0.0600    -7.8780    -1.3120 c3         1 E67       0.149600
     28 CBB         -5.7980     1.5650    -0.3340 c3         1 E67       0.160600
     29 CBC         -7.0700     2.3760    -0.4630 c3         1 E67      -0.080400
     30 CBD         -8.2970     1.4740    -0.5190 c3         1 E67      -0.075400
     31 CBE         -9.5980     2.2580    -0.6310 c3         1 E67      -0.077400
     32 CBF        -10.8220     1.3560    -0.6730 c3         1 E67       0.149800
     33 NBG        -12.0450     2.1400    -0.7710 n8         1 E67      -0.995200
     34 CBH          7.1450     0.9010     1.1380 c3         1 E67       0.214100
     35 CBI          7.9810     0.7380    -0.1050 ca         1 E67      -0.088300
     36 CBJ          7.8960     1.6660    -1.1420 ca         1 E67      -0.098500
     37 CBK          8.6940     1.5420    -2.2690 ca         1 E67      -0.114000
     38 CBL          9.5940     0.4880    -2.3780 ca         1 E67      -0.109000
     39 CBM          9.6830    -0.4430    -1.3530 ca         1 E67      -0.114000
     40 CBN          8.8780    -0.3180    -0.2270 ca         1 E67      -0.098500
     41 HAC         -0.3780     3.2730     0.4070 ha         1 E67       0.107000
     42 HAF         -3.9190    -0.1350    -0.1590 ha         1 E67       0.137000
     43 HAM         -1.3830     5.2210     1.1070 h1         1 E67       0.037367
     44 HAMA        -1.1310     5.1610    -0.6510 h1         1 E67       0.037367
     45 HAMB        -2.4120     6.1830     0.0310 h1         1 E67       0.037367
     46 HNAN         1.3970     2.4480     0.6640 hn         1 E67       0.493000
     47 HAO          2.8030     0.1690     1.7540 h1         1 E67       0.072700
     48 HAP          3.6850     3.0070     1.0790 hc         1 E67       0.055450
     49 HAPA         3.1590     2.4280     2.6600 hc         1 E67       0.055450
     50 HAQ          5.6280     2.5190     2.4810 h1         1 E67       0.035950
     51 HAQA         5.0420     0.8900     2.8120 h1         1 E67       0.035950
     52 HAS          5.6120    -0.1620    -0.6820 h1         1 E67       0.035950
     53 HASA         5.0300    -0.7440     0.8740 h1         1 E67       0.035950
     54 HAT          3.1420    -0.3130    -0.6320 hc         1 E67       0.055450
     55 HATA         3.6820     1.3430    -0.9150 hc         1 E67       0.055450
     56 HNAU         0.9150    -3.0340     0.6650 hn         1 E67       0.496000
     57 HAV         -1.5940    -3.8870     1.2200 h1         1 E67       0.049200
     58 HAVA        -1.6880    -3.6700    -0.5170 h1         1 E67       0.049200
     59 HAW          0.2720    -5.1580    -0.8340 hc         1 E67       0.051700
     60 HAWA         0.4040    -5.3860     0.9050 hc         1 E67       0.051700
     61 HAX         -1.9050    -6.3080     0.9750 h1         1 E67       0.031700
     62 HAXA        -2.0310    -6.1660    -0.7730 h1         1 E67       0.031700
     63 HAZ         -2.4940    -8.7240    -0.5130 h1         1 E67       0.030533
     64 HAZA        -1.1900    -9.6680     0.2220 h1         1 E67       0.030533
     65 HAZB        -2.1270    -8.5490     1.2110 h1         1 E67       0.030533
     66 HBA          0.7320    -7.1500    -1.4850 h1         1 E67       0.030533
     67 HBAA         0.3990    -8.8670    -1.3230 h1         1 E67       0.030533
     68 HBAB        -0.7580    -7.8240    -2.1640 h1         1 E67       0.030533
     69 HBB         -5.6750     0.9050    -1.2010 h1         1 E67       0.037200
     70 HBBA        -5.8410     0.9310     0.5590 h1         1 E67       0.037200
     71 HBC         -7.1560     3.0570     0.3890 hc         1 E67       0.057700
     72 HBCA        -7.0240     2.9950    -1.3640 hc         1 E67       0.057700
     73 HBD         -8.2100     0.7890    -1.3690 hc         1 E67       0.038200
     74 HBDA        -8.3280     0.8450     0.3770 hc         1 E67       0.038200
     75 HBE         -9.6820     2.9420     0.2210 hc         1 E67       0.048200
     76 HBEA        -9.5810     2.8830    -1.5290 hc         1 E67       0.048200
     77 HBF        -10.7580     0.7100    -1.5530 h1         1 E67       0.026200
     78 HBFA       -10.7990     0.6880     0.2000 h1         1 E67       0.026200
     79 HNBG       -12.8410     1.5180    -0.8370 hn         1 E67       0.391500
     80 HNBA       -12.1770     2.6550     0.0920 hn         1 E67       0.391500
     81 HBH          7.5710     1.7110     1.7380 h1         1 E67       0.037700
     82 HBHA         7.2240    -0.0080     1.7570 h1         1 E67       0.037700
     83 HBJ          7.1880     2.4820    -1.0650 ha         1 E67       0.117000
     84 HBK          8.6140     2.2700    -3.0670 ha         1 E67       0.111500
     85 HBL         10.2160     0.3910    -3.2590 ha         1 E67       0.111000
     86 HBM         10.3750    -1.2720    -1.4300 ha         1 E67       0.111500
     87 HBN          8.9470    -1.0550     0.5650 ha         1 E67       0.117000
@<TRIPOS>BOND
     1     1     2 ar  
     2     1     6 ar  
     3     2     3 ar  
     4     2    21 1   
     5     3     4 ar  
     6     4     5 ar  
     7     4    10 ar  
     8     5     6 ar  
     9     5     9 ar  
    10     6    14 1   
    11     7     8 ar  
    12     7    10 ar  
    13     7    11 1   
    14     8     9 ar  
    15     8    12 1   
    16     9    41 1   
    17    10    42 1   
    18    11    28 1   
    19    12    13 1   
    20    13    43 1   
    21    13    44 1   
    22    13    45 1   
    23    14    15 1   
    24    14    46 1   
    25    15    16 1   
    26    15    20 1   
    27    15    47 1   
    28    16    17 1   
    29    16    48 1   
    30    16    49 1   
    31    17    18 1   
    32    17    50 1   
    33    17    51 1   
    34    18    19 1   
    35    18    34 1   
    36    19    20 1   
    37    19    52 1   
    38    19    53 1   
    39    20    54 1   
    40    20    55 1   
    41    21    22 1   
    42    21    56 1   
    43    22    23 1   
    44    22    57 1   
    45    22    58 1   
    46    23    24 1   
    47    23    59 1   
    48    23    60 1   
    49    24    25 1   
    50    24    61 1   
    51    24    62 1   
    52    25    26 1   
    53    25    27 1   
    54    26    63 1   
    55    26    64 1   
    56    26    65 1   
    57    27    66 1   
    58    27    67 1   
    59    27    68 1   
    60    28    29 1   
    61    28    69 1   
    62    28    70 1   
    63    29    30 1   
    64    29    71 1   
    65    29    72 1   
    66    30    31 1   
    67    30    73 1   
    68    30    74 1   
    69    31    32 1   
    70    31    75 1   
    71    31    76 1   
    72    32    33 1   
    73    32    77 1   
    74    32    78 1   
    75    33    79 1   
    76    33    80 1   
    77    34    35 1   
    78    34    81 1   
    79    34    82 1   
    80    35    36 ar  
    81    35    40 ar  
    82    36    37 ar  
    83    36    83 1   
    84    37    38 ar  
    85    37    84 1   
    86    38    39 ar  
    87    38    85 1   
    88    39    40 ar  
    89    39    86 1   
    90    40    87 1   
@<TRIPOS>SUBSTRUCTURE
     1 E67         1 TEMP              0 ****  ****    0 ROOT
