@<TRIPOS>MOLECULE
E67
   87    90     1     0     0
SMALL
No Charge or Current Charge


@<TRIPOS>ATOM
      1 N1           0.6840    -0.9630     1.1380 nb         1 E67      -0.345000
      2 C2          -0.3640    -1.7230     0.8160 ca         1 E67       0.424900
      3 N3          -1.6060    -1.3080     0.5220 nb         1 E67      -0.294000
      4 C4          -1.8360     0.0180     0.5500 ca         1 E67       0.117000
      5 C5          -0.7980     0.9190     0.8790 ca         1 E67      -0.222000
      6 C6           0.4710     0.3610     1.1690 ca         1 E67       0.442900
      7 CAA         -3.3780     1.9010     0.2750 ca         1 E67       0.172100
      8 CAB         -2.3420     2.8060     0.6020 ca         1 E67       0.083100
      9 CAC         -1.0520     2.3120     0.9030 ca         1 E67      -0.129000
     10 CAF         -3.1150     0.5140     0.2520 ca         1 E67      -0.208000
     11 OAK         -4.6330     2.4090    -0.0160 os         1 E67      -0.326100
     12 OAL         -2.6280     4.1630     0.6160 os         1 E67      -0.320100
     13 CAM         -1.6430     5.1610     0.9350 c3         1 E67       0.144900
     14 NAN          1.5660     1.1580     1.5050 nu         1 E67      -0.930100
     15 CAO          2.9790     0.7380     1.4770 c6         1 E67       0.242500
     16 CAP          3.8350     1.7580     2.2570 c6         1 E67      -0.092900
     17 CAQ          5.3320     1.3810     2.1760 c6         1 E67       0.168800
     18 NAR          5.7930     1.2850     0.7640 n3         1 E67      -0.721600
     19 CAS          4.9900     0.2950    -0.0100 c6         1 E67       0.168800
     20 CAT          3.4850     0.6410     0.0200 c6         1 E67      -0.092900
     21 NAU         -0.1120    -3.0820     0.7910 nu         1 E67      -0.924100
     22 CAV         -1.0620    -4.1610     0.4780 c3         1 E67       0.235800
     23 CAW         -0.3700    -5.5340     0.5560 c3         1 E67      -0.097400
     24 CAX         -1.3380    -6.6930     0.2320 c3         1 E67       0.168800
     25 NAY         -0.7740    -8.0530     0.4340 n3         1 E67      -0.714600
     26 CAZ         -1.8130    -9.1040     0.3410 c3         1 E67       0.149600
     27 CBA          0.3930    -8.3560    -0.4300 c3         1 E67       0.149600
     28 CBB         -5.7470     1.5690    -0.3590 c3         1 E67       0.160600
     29 CBC         -6.9600     2.4840    -0.6130 c3         1 E67      -0.080400
     30 CBD         -8.2370     1.7000    -0.9950 c3         1 E67      -0.075400
     31 CBE         -9.4560     2.6140    -1.2500 c3         1 E67      -0.077400
     32 CBF        -10.7260     1.8260    -1.6310 c3         1 E67       0.149800
     33 NBG        -11.8700     2.7240    -1.8720 n8         1 E67      -0.995200
     34 CBH          7.2530     1.0420     0.6720 c3         1 E67       0.214100
     35 CBI          7.7980     1.1320    -0.7520 ca         1 E67      -0.088300
     36 CBJ          7.8080     2.3680    -1.4290 ca         1 E67      -0.098500
     37 CBK          8.3080     2.4560    -2.7400 ca         1 E67      -0.114000
     38 CBL          8.8020     1.3080    -3.3820 ca         1 E67      -0.109000
     39 CBM          8.7950     0.0730    -2.7130 ca         1 E67      -0.114000
     40 CBN          8.2950    -0.0160    -1.4020 ca         1 E67      -0.098500
     41 HAC         -0.2540     3.0020     1.1540 ha         1 E67       0.107000
     42 HAF         -3.8950    -0.1980     0.0030 ha         1 E67       0.137000
     43 HAM         -1.2520     5.0140     1.9500 h1         1 E67       0.037367
     44 HAMA        -0.8070     5.1250     0.2250 h1         1 E67       0.037367
     45 HAMB        -2.0880     6.1630     0.8850 h1         1 E67       0.037367
     46 HNAN         1.3710     2.1540     1.5360 hn         1 E67       0.493000
     47 HAO          3.1000    -0.2430     1.9640 h1         1 E67       0.072700
     48 HAP          3.6930     2.7680     1.8500 hc         1 E67       0.055450
     49 HAPA         3.5210     1.7890     3.3080 hc         1 E67       0.055450
     50 HAQ          5.9150     2.1410     2.7160 h1         1 E67       0.035950
     51 HAQA         5.4900     0.4230     2.6940 h1         1 E67       0.035950
     52 HAS          5.3160     0.2680    -1.0600 h1         1 E67       0.035950
     53 HASA         5.1360    -0.7160     0.3990 h1         1 E67       0.035950
     54 HAT          2.9230    -0.1260    -0.5290 hc         1 E67       0.055450
     55 HATA         3.3180     1.5920    -0.5040 hc         1 E67       0.055450
     56 HNAU         0.8440    -3.3450     1.0280 hn         1 E67       0.496000
     57 HAV         -1.9020    -4.1380     1.1860 h1         1 E67       0.049200
     58 HAVA        -1.4700    -4.0200    -0.5330 h1         1 E67       0.049200
     59 HAW          0.4720    -5.5460    -0.1460 hc         1 E67       0.051700
     60 HAWA         0.0360    -5.6790     1.5650 hc         1 E67       0.051700
     61 HAX         -2.2200    -6.5740     0.8760 h1         1 E67       0.031700
     62 HAXA        -1.6840    -6.5830    -0.8050 h1         1 E67       0.031700
     63 HAZ         -2.2400    -9.1440    -0.6700 h1         1 E67       0.030533
     64 HAZA        -1.3910   -10.0900     0.5770 h1         1 E67       0.030533
     65 HAZB        -2.6280    -8.9090     1.0510 h1         1 E67       0.030533
     66 HBA          1.2240    -7.6670    -0.2330 h1         1 E67       0.030533
     67 HBAA         0.7600    -9.3740    -0.2410 h1         1 E67       0.030533
     68 HBAB         0.1240    -8.2810    -1.4920 h1         1 E67       0.030533
     69 HBB         -5.5300     0.9880    -1.2650 h1         1 E67       0.037200
     70 HBBA        -5.9770     0.8750     0.4600 h1         1 E67       0.037200
     71 HBC         -7.1550     3.0770     0.2890 hc         1 E67       0.057700
     72 HBCA        -6.7140     3.1880    -1.4170 hc         1 E67       0.057700
     73 HBD         -8.0380     1.1050    -1.8950 hc         1 E67       0.038200
     74 HBDA        -8.4790     0.9940    -0.1910 hc         1 E67       0.038200
     75 HBE         -9.6540     3.2090    -0.3500 hc         1 E67       0.048200
     76 HBEA        -9.2140     3.3190    -2.0560 hc         1 E67       0.048200
     77 HBF        -10.5390     1.2430    -2.5440 h1         1 E67       0.026200
     78 HBFA       -10.9880     1.1310    -0.8210 h1         1 E67       0.026200
     79 HNBG       -12.7060     2.1580    -2.0610 hn         1 E67       0.391500
     80 HNBA       -12.1020     3.2100    -0.9970 hn         1 E67       0.391500
     81 HBH          7.7900     1.7830     1.2810 h1         1 E67       0.037700
     82 HBHA         7.4960     0.0560     1.0900 h1         1 E67       0.037700
     83 HBJ          7.4220     3.2580    -0.9370 ha         1 E67       0.117000
     84 HBK          8.3110     3.4130    -3.2570 ha         1 E67       0.111500
     85 HBL          9.1890     1.3760    -4.3970 ha         1 E67       0.111000
     86 HBM          9.1770    -0.8170    -3.2100 ha         1 E67       0.111500
     87 HBN          8.2920    -0.9770    -0.8920 ha         1 E67       0.117000
@<TRIPOS>BOND
     1     1     2 ar  
     2     1     6 ar  
     3     2     3 ar  
     4     2    21 1   
     5     3     4 ar  
     6     4     5 ar  
     7     4    10 ar  
     8     5     6 ar  
     9     5     9 ar  
    10     6    14 1   
    11     7     8 ar  
    12     7    10 ar  
    13     7    11 1   
    14     8     9 ar  
    15     8    12 1   
    16     9    41 1   
    17    10    42 1   
    18    11    28 1   
    19    12    13 1   
    20    13    43 1   
    21    13    44 1   
    22    13    45 1   
    23    14    15 1   
    24    14    46 1   
    25    15    16 1   
    26    15    20 1   
    27    15    47 1   
    28    16    17 1   
    29    16    48 1   
    30    16    49 1   
    31    17    18 1   
    32    17    50 1   
    33    17    51 1   
    34    18    19 1   
    35    18    34 1   
    36    19    20 1   
    37    19    52 1   
    38    19    53 1   
    39    20    54 1   
    40    20    55 1   
    41    21    22 1   
    42    21    56 1   
    43    22    23 1   
    44    22    57 1   
    45    22    58 1   
    46    23    24 1   
    47    23    59 1   
    48    23    60 1   
    49    24    25 1   
    50    24    61 1   
    51    24    62 1   
    52    25    26 1   
    53    25    27 1   
    54    26    63 1   
    55    26    64 1   
    56    26    65 1   
    57    27    66 1   
    58    27    67 1   
    59    27    68 1   
    60    28    29 1   
    61    28    69 1   
    62    28    70 1   
    63    29    30 1   
    64    29    71 1   
    65    29    72 1   
    66    30    31 1   
    67    30    73 1   
    68    30    74 1   
    69    31    32 1   
    70    31    75 1   
    71    31    76 1   
    72    32    33 1   
    73    32    77 1   
    74    32    78 1   
    75    33    79 1   
    76    33    80 1   
    77    34    35 1   
    78    34    81 1   
    79    34    82 1   
    80    35    36 ar  
    81    35    40 ar  
    82    36    37 ar  
    83    36    83 1   
    84    37    38 ar  
    85    37    84 1   
    86    38    39 ar  
    87    38    85 1   
    88    39    40 ar  
    89    39    86 1   
    90    40    87 1   
@<TRIPOS>SUBSTRUCTURE
     1 E67         1 TEMP              0 ****  ****    0 ROOT
