@<TRIPOS>MOLECULE
E68
   41    42     1     0     0
SMALL
No Charge or Current Charge


@<TRIPOS>ATOM
      1 C1         -21.6740     8.8560     2.6310 ca         1 E68      -0.247500
      2 C2         -22.0130     9.3690     1.3630 ca         1 E68      -0.022500
      3 C3         -23.1160     8.8520     0.6610 ca         1 E68      -0.093000
      4 C4         -23.9050     7.8120     1.2130 ca         1 E68      -0.095600
      5 C5         -23.5540     7.3100     2.4880 ca         1 E68      -0.093000
      6 C6         -22.4520     7.8250     3.1920 ca         1 E68      -0.022500
      7 C7         -25.1040     7.2280     0.4870 c          1 E68       0.608700
      8 C8         -26.5280     7.3110    -1.6050 c3         1 E68       0.016000
      9 S1         -20.2630     9.5180     3.5290 sy         1 E68       1.124600
     10 O1         -19.8030     8.5770     4.5480 o          1 E68      -0.541500
     11 O2         -19.3400    10.2000     2.6240 o          1 E68      -0.541500
     12 N1         -20.9130    10.7350     4.3990 n8         1 E68      -1.003100
     13 C9         -26.5880     8.0970    -2.9350 c          1 E68       0.587100
     14 C10        -27.8620     8.3460    -5.0860 c3         1 E68       0.103000
     15 O3         -25.7860     6.3310     0.9660 o          1 E68      -0.602100
     16 C11        -28.9860     7.6250    -5.8490 c3         1 E68      -0.105700
     17 O4         -25.7890     8.9780    -3.2290 o          1 E68      -0.611100
     18 N2         -25.4010     7.7530    -0.7520 ns         1 E68      -0.491900
     19 C12        -29.2380     8.2240    -7.2040 cc         1 E68       0.235300
     20 C13        -28.8690     7.7200    -8.4200 cd         1 E68      -0.221000
     21 C14        -29.9660     9.6540    -8.6430 cd         1 E68       0.394400
     22 N3         -27.6160     7.7350    -3.7780 ns         1 E68      -0.500900
     23 N4         -29.3370     8.6420    -9.3440 na         1 E68      -0.299500
     24 N5         -29.9090     9.4050    -7.3410 nc         1 E68      -0.671000
     25 H1         -21.4240    10.1690     0.9170 ha         1 E68       0.139500
     26 H2         -23.3410     9.2760    -0.3140 ha         1 E68       0.133500
     27 H3         -24.1390     6.5130     2.9430 ha         1 E68       0.133500
     28 H4         -22.2080     7.4190     4.1730 ha         1 E68       0.139500
     29 H5         -27.4750     7.4600    -1.0710 h1         1 E68       0.068200
     30 H6         -26.4180     6.2440    -1.8380 h1         1 E68       0.068200
     31 H7         -20.5800    10.4940     5.3300 hn         1 E68       0.474000
     32 H8         -20.2910    11.4980     4.1410 hn         1 E68       0.474000
     33 H9         -26.9370     8.3070    -5.6780 h1         1 E68       0.064200
     34 H10        -28.1320     9.4010    -4.9410 h1         1 E68       0.064200
     35 H11        -29.9070     7.6590    -5.2550 hc         1 E68       0.050200
     36 H12        -28.7230     6.5670    -5.9620 hc         1 E68       0.050200
     37 H13        -24.8040     8.4930    -1.0990 hn         1 E68       0.346500
     38 H14        -28.3320     6.8140    -8.6800 h4         1 E68       0.158000
     39 H15        -30.4250    10.5070    -9.1300 h5         1 E68       0.057100
     40 H16        -28.2350     6.9980    -3.4600 hn         1 E68       0.314500
     41 H17        -29.2480     8.6020   -10.3530 hn         1 E68       0.355000
@<TRIPOS>BOND
     1     1     2 ar  
     2     1     6 ar  
     3     1     9 1   
     4     2     3 ar  
     5     2    25 1   
     6     3     4 ar  
     7     3    26 1   
     8     4     5 ar  
     9     4     7 1   
    10     5     6 ar  
    11     5    27 1   
    12     6    28 1   
    13     7    15 2   
    14     7    18 1   
    15     8    13 1   
    16     8    18 1   
    17     8    29 1   
    18     8    30 1   
    19     9    10 2   
    20     9    11 2   
    21     9    12 1   
    22    12    31 1   
    23    12    32 1   
    24    13    17 2   
    25    13    22 1   
    26    14    16 1   
    27    14    22 1   
    28    14    33 1   
    29    14    34 1   
    30    16    19 1   
    31    16    35 1   
    32    16    36 1   
    33    18    37 1   
    34    19    20 2   
    35    19    24 1   
    36    20    23 1   
    37    20    38 1   
    38    21    23 1   
    39    21    24 2   
    40    21    39 1   
    41    22    40 1   
    42    23    41 1   
@<TRIPOS>SUBSTRUCTURE
     1 E68         1 TEMP              0 ****  ****    0 ROOT
