@<TRIPOS>MOLECULE
E68
   41    42     1     0     0
SMALL
abcg2


@<TRIPOS>ATOM
      1 C1         -21.7290     8.8310     2.4600 ca         1 E68      -0.247500
      2 C2         -21.9580     9.2300     1.1520 ca         1 E68      -0.022500
      3 C3         -23.0380     8.7000     0.4670 ca         1 E68      -0.093000
      4 C4         -23.8850     7.7810     1.0820 ca         1 E68      -0.095600
      5 C5         -23.6300     7.3870     2.3920 ca         1 E68      -0.093000
      6 C6         -22.5530     7.9090     3.0880 ca         1 E68      -0.022500
      7 C7         -25.0420     7.1470     0.3700 c          1 E68       0.608700
      8 C8         -26.6230     7.3310    -1.4700 c3         1 E68       0.016000
      9 S1         -20.3380     9.5010     3.3320 sy         1 E68       1.124600
     10 O1         -19.9510     8.5340     4.3500 o          1 E68      -0.541500
     11 O2         -19.3370     9.9420     2.3730 o          1 E68      -0.541500
     12 N1         -20.9950    10.8740     3.9700 n8         1 E68      -1.003100
     13 C9         -26.7520     8.1900    -2.7180 c          1 E68       0.587100
     14 C10        -27.7340     8.3090    -4.9580 c3         1 E68       0.103000
     15 O3         -25.4730     6.0570     0.7200 o          1 E68      -0.602100
     16 C11        -28.8420     7.5940    -5.7230 c3         1 E68      -0.105700
     17 O4         -26.2350     9.2960    -2.7900 o          1 E68      -0.611100
     18 N2         -25.5510     7.8370    -0.6580 ns         1 E68      -0.491900
     19 C12        -29.1000     8.2390    -7.0420 cc         1 E68       0.235300
     20 C13        -28.8660     7.7330    -8.2900 cd         1 E68      -0.221000
     21 C14        -29.6860     9.7550    -8.4280 cd         1 E68       0.394400
     22 N3         -27.4880     7.6490    -3.6920 ns         1 E68      -0.500900
     23 N4         -29.2460     8.7140    -9.1590 na         1 E68      -0.299500
     24 N5         -29.6120     9.5050    -7.1450 nc         1 E68      -0.671000
     25 H1         -21.3020     9.9320     0.6570 ha         1 E68       0.139500
     26 H2         -23.1830     8.9960    -0.5640 ha         1 E68       0.133500
     27 H3         -24.2730     6.6640     2.8750 ha         1 E68       0.133500
     28 H4         -22.3640     7.5890     4.1040 ha         1 E68       0.139500
     29 H5         -27.5780     7.3490    -0.9330 h1         1 E68       0.068200
     30 H6         -26.4350     6.2910    -1.7430 h1         1 E68       0.068200
     31 H7         -21.5900    10.6920     4.7710 hn         1 E68       0.474000
     32 H8         -20.2760    11.5490     4.2150 hn         1 E68       0.474000
     33 H9         -26.8220     8.3260    -5.5620 h1         1 E68       0.064200
     34 H10        -28.0210     9.3460    -4.7760 h1         1 E68       0.064200
     35 H11        -29.7530     7.5930    -5.1170 hc         1 E68       0.050200
     36 H12        -28.5650     6.5490    -5.8830 hc         1 E68       0.050200
     37 H13        -25.2600     8.7850    -0.8450 hn         1 E68       0.346500
     38 H14        -28.4730     6.7860    -8.6200 h4         1 E68       0.158000
     39 H15        -30.0480    10.6660    -8.8790 h5         1 E68       0.057100
     40 H16        -27.8140     6.7010    -3.5810 hn         1 E68       0.314500
     41 H17        -29.2100     8.6660   -10.1650 hn         1 E68       0.355000
@<TRIPOS>BOND
     1     1     2 ar  
     2     1     6 ar  
     3     1     9 1   
     4     2     3 ar  
     5     2    25 1   
     6     3     4 ar  
     7     3    26 1   
     8     4     5 ar  
     9     4     7 1   
    10     5     6 ar  
    11     5    27 1   
    12     6    28 1   
    13     7    15 2   
    14     7    18 1   
    15     8    13 1   
    16     8    18 1   
    17     8    29 1   
    18     8    30 1   
    19     9    10 2   
    20     9    11 2   
    21     9    12 1   
    22    12    31 1   
    23    12    32 1   
    24    13    17 2   
    25    13    22 1   
    26    14    16 1   
    27    14    22 1   
    28    14    33 1   
    29    14    34 1   
    30    16    19 1   
    31    16    35 1   
    32    16    36 1   
    33    18    37 1   
    34    19    20 2   
    35    19    24 1   
    36    20    23 1   
    37    20    38 1   
    38    21    23 1   
    39    21    24 2   
    40    21    39 1   
    41    22    40 1   
    42    23    41 1   
@<TRIPOS>SUBSTRUCTURE
     1 E68         1 TEMP              0 ****  ****    0 ROOT
