@<TRIPOS>MOLECULE
E69
   92    92     1     0     0
SMALL
abcg2


@<TRIPOS>ATOM
      1 N1           2.1970    -0.3020    -0.3580 ns         1 E69      -0.484900
      2 C4           3.4570    -0.7640     0.1720 c3         1 E69       0.029700
      3 C5           3.3860    -0.9870     1.6900 c3         1 E69      -0.087400
      4 C6           2.3840    -2.0480     2.1430 c3         1 E69      -0.056700
      5 C7           2.7640    -3.4460     1.6650 c3         1 E69      -0.092100
      6 C8           2.2660    -2.0190     3.6640 c3         1 E69      -0.092100
      7 C9           4.5240     0.2890    -0.1140 c          1 E69       0.585100
      8 O3           4.2520     1.4820    -0.1240 o          1 E69      -0.607100
      9 N2           5.7610    -0.1850    -0.2860 ns         1 E69      -0.500900
     10 C10          6.9190     0.6770    -0.4290 c3         1 E69       0.104000
     11 C11          8.1950    -0.1430    -0.5210 c3         1 E69      -0.093400
     12 C12          9.4250     0.7530    -0.5750 c3         1 E69      -0.089400
     13 C13         10.7100    -0.0500    -0.6960 c3         1 E69       0.220800
     14 N3          11.8550     0.8340    -0.6790 nu         1 E69      -0.898400
     15 C14         13.1160     0.3360    -0.8780 c2         1 E69       0.786100
     16 N4          13.2870    -0.8690    -1.2780 n2         1 E69      -0.890100
     17 N5          14.1140     1.2420    -0.5770 nv         1 E69      -1.068200
     18 C3           1.3770    -1.0340    -1.1210 c          1 E69       0.568100
     19 O2           1.6100    -2.1740    -1.4980 o          1 E69      -0.618100
     20 C2           0.0510    -0.3620    -1.4740 c3         1 E69       0.107300
     21 O1          -0.5150    -0.9630    -2.6010 oh         1 E69      -0.633000
     22 C1          -0.8870    -0.4350    -0.2670 c3         1 E69      -0.192400
     23 C15         -2.1950     0.2640    -0.5630 c          1 E69       0.614100
     24 O4          -2.2450     1.3280    -1.1630 o          1 E69      -0.599100
     25 N6          -3.2980    -0.3510    -0.1110 ns         1 E69      -0.487900
     26 C16         -4.5930     0.2700    -0.2280 c3         1 E69       0.046700
     27 C21         -4.6270     1.5750     0.5670 c          1 E69       0.606100
     28 O5          -4.0010     1.6930     1.6110 o          1 E69      -0.610100
     29 C17         -5.6810    -0.6640     0.3020 c3         1 E69      -0.091400
     30 C18         -5.8480    -1.9260    -0.5340 c3         1 E69      -0.088400
     31 C19         -7.0180    -2.7640    -0.0400 c3         1 E69       0.216800
     32 N7          -7.1380    -3.9740    -0.8190 nu         1 E69      -0.900400
     33 C20         -8.2640    -4.7510    -0.7360 c2         1 E69       0.787100
     34 N9          -8.1190    -5.9860    -1.3350 nv         1 E69      -1.067200
     35 N8          -9.3090    -4.3280    -0.1280 n2         1 E69      -0.889100
     36 N10         -5.4070     2.5540     0.0890 n          1 E69      -0.388800
     37 C22         -5.5780     3.7700     0.8520 c5         1 E69       0.025700
     38 C26         -6.3820     3.4940     2.1200 c          1 E69       0.599100
     39 O6          -7.1780     2.5710     2.1890 o          1 E69      -0.603100
     40 C23         -6.3530     4.6800    -0.1100 c5         1 E69      -0.083400
     41 C24         -7.1830     3.7000    -0.9310 c5         1 E69      -0.094400
     42 C25         -6.2520     2.5040    -1.1030 c5         1 E69       0.109000
     43 N11         -6.1770     4.3750     3.1080 nt         1 E69      -0.605000
     44 H24          1.9380     0.6490    -0.1380 hn         1 E69       0.338500
     45 H14          3.7090    -1.6970    -0.3330 h1         1 E69       0.090700
     46 H15          4.3850    -1.2600     2.0480 hc         1 E69       0.052700
     47 H16          3.1370    -0.0300     2.1620 hc         1 E69       0.052700
     48 H17          1.4020    -1.7930     1.7300 hc         1 E69       0.046700
     49 H21          3.7600    -3.7180     2.0210 hc         1 E69       0.036200
     50 H22          2.0630    -4.1880     2.0530 hc         1 E69       0.036200
     51 H23          2.7560    -3.5320     0.5790 hc         1 E69       0.036200
     52 H18          1.9680    -1.0320     4.0230 hc         1 E69       0.036200
     53 H19          1.5240    -2.7390     4.0130 hc         1 E69       0.036200
     54 H20          3.2190    -2.2710     4.1370 hc         1 E69       0.036200
     55 H1           5.9060    -1.1820    -0.2910 hn         1 E69       0.318500
     56 H2           6.8130     1.2990    -1.3220 h1         1 E69       0.053700
     57 H3           6.9760     1.3560     0.4260 h1         1 E69       0.053700
     58 H4           8.2660    -0.8090     0.3430 hc         1 E69       0.048200
     59 H5           8.1610    -0.7800    -1.4110 hc         1 E69       0.048200
     60 H6           9.3470     1.4440    -1.4200 hc         1 E69       0.047200
     61 H7           9.4590     1.3680     0.3310 hc         1 E69       0.047200
     62 H8          10.7610    -0.7930     0.1110 h1         1 E69       0.052700
     63 H9          10.7110    -0.6090    -1.6330 h1         1 E69       0.052700
     64 H10         11.7920     1.5860    -0.0100 hn         1 E69       0.466000
     65 H13         14.2700    -1.0530    -1.4460 hn         1 E69       0.378400
     66 H11         13.8890     2.2150    -0.7170 hn         1 E69       0.453000
     67 H12         15.0240     1.0140    -0.9440 hn         1 E69       0.453000
     68 H25          0.2310     0.6890    -1.7160 h1         1 E69       0.105700
     69 H26         -0.3330    -1.9110    -2.5500 ho         1 E69       0.461000
     70 H27         -1.0520    -1.4780     0.0180 hc         1 E69       0.068200
     71 H28         -0.4350     0.0620     0.5960 hc         1 E69       0.068200
     72 H29         -3.2020    -1.1730     0.4640 hn         1 E69       0.320500
     73 H30         -4.7830     0.4690    -1.2860 h1         1 E69       0.077700
     74 H40         -5.4580    -0.9190     1.3430 hc         1 E69       0.066700
     75 H41         -6.6270    -0.1150     0.3220 hc         1 E69       0.066700
     76 H42         -6.0150    -1.6550    -1.5800 hc         1 E69       0.044200
     77 H43         -4.9310    -2.5230    -0.5050 hc         1 E69       0.044200
     78 H44         -6.8970    -2.9800     1.0300 h1         1 E69       0.055200
     79 H45         -7.9430    -2.1960    -0.1390 h1         1 E69       0.055200
     80 H46         -6.2740    -4.4800    -0.9410 hn         1 E69       0.465000
     81 H49         -7.4850    -6.0320    -2.1180 hn         1 E69       0.451500
     82 H50         -8.9820    -6.4680    -1.5300 hn         1 E69       0.451500
     83 H47        -10.0740    -4.9840    -0.2340 hn         1 E69       0.377400
     84 H37         -4.6100     4.2050     1.1140 h1         1 E69       0.082700
     85 H35         -6.9500     5.4300     0.4090 hc         1 E69       0.058200
     86 H36         -5.6420     5.2080    -0.7480 hc         1 E69       0.058200
     87 H33         -8.0770     3.4020    -0.3830 hc         1 E69       0.062200
     88 H34         -7.4990     4.1090    -1.8890 hc         1 E69       0.062200
     89 H31         -5.6440     2.5980    -2.0060 h1         1 E69       0.052200
     90 H32         -6.8080     1.5690    -1.1650 h1         1 E69       0.052200
     91 H38         -5.4880     5.1040     3.0370 hn         1 E69       0.313500
     92 H39         -6.6980     4.3140     3.9670 hn         1 E69       0.313500
@<TRIPOS>BOND
     1     1     2 1   
     2     1    18 1   
     3     1    44 1   
     4     2     3 1   
     5     2     7 1   
     6     2    45 1   
     7     3     4 1   
     8     3    46 1   
     9     3    47 1   
    10     4     5 1   
    11     4     6 1   
    12     4    48 1   
    13     5    49 1   
    14     5    50 1   
    15     5    51 1   
    16     6    52 1   
    17     6    53 1   
    18     6    54 1   
    19     7     8 2   
    20     7     9 1   
    21     9    10 1   
    22     9    55 1   
    23    10    11 1   
    24    10    56 1   
    25    10    57 1   
    26    11    12 1   
    27    11    58 1   
    28    11    59 1   
    29    12    13 1   
    30    12    60 1   
    31    12    61 1   
    32    13    14 1   
    33    13    62 1   
    34    13    63 1   
    35    14    15 1   
    36    14    64 1   
    37    15    16 2   
    38    15    17 1   
    39    16    65 1   
    40    17    66 1   
    41    17    67 1   
    42    18    19 2   
    43    18    20 1   
    44    20    21 1   
    45    20    22 1   
    46    20    68 1   
    47    21    69 1   
    48    22    23 1   
    49    22    70 1   
    50    22    71 1   
    51    23    24 2   
    52    23    25 1   
    53    25    26 1   
    54    25    72 1   
    55    26    27 1   
    56    26    29 1   
    57    26    73 1   
    58    27    28 2   
    59    27    36 1   
    60    29    30 1   
    61    29    74 1   
    62    29    75 1   
    63    30    31 1   
    64    30    76 1   
    65    30    77 1   
    66    31    32 1   
    67    31    78 1   
    68    31    79 1   
    69    32    33 1   
    70    32    80 1   
    71    33    34 1   
    72    33    35 2   
    73    34    81 1   
    74    34    82 1   
    75    35    83 1   
    76    36    37 1   
    77    36    42 1   
    78    37    38 1   
    79    37    40 1   
    80    37    84 1   
    81    38    39 2   
    82    38    43 1   
    83    40    41 1   
    84    40    85 1   
    85    40    86 1   
    86    41    42 1   
    87    41    87 1   
    88    41    88 1   
    89    42    89 1   
    90    42    90 1   
    91    43    91 1   
    92    43    92 1   
@<TRIPOS>SUBSTRUCTURE
     1 E69         1 TEMP              0 ****  ****    0 ROOT
