@<TRIPOS>MOLECULE
E69
   92    92     1     0     0
SMALL
No Charge or Current Charge


@<TRIPOS>ATOM
      1 N1           1.9130    -1.1260     0.1430 ns         1 E69      -0.484900
      2 C4           3.3220    -1.3810     0.5290 c3         1 E69       0.029700
      3 C5           3.5050    -1.2460     2.0690 c3         1 E69      -0.087400
      4 C6           2.7660    -2.3010     2.9400 c3         1 E69      -0.056700
      5 C7           3.3080    -3.7340     2.7250 c3         1 E69      -0.092100
      6 C8           2.8250    -1.9190     4.4360 c3         1 E69      -0.092100
      7 C9           4.2660    -0.4060    -0.2340 c          1 E69       0.585100
      8 O3           3.8650     0.5850    -0.8340 o          1 E69      -0.607100
      9 N2           5.6040    -0.7360    -0.1980 ns         1 E69      -0.500900
     10 C10          6.6620     0.0420    -0.8410 c3         1 E69       0.104000
     11 C11          8.0590    -0.5070    -0.4960 c3         1 E69      -0.093400
     12 C12          9.2010     0.2960    -1.1590 c3         1 E69      -0.089400
     13 C13         10.6000    -0.2540    -0.8160 c3         1 E69       0.220800
     14 N3          11.6420     0.5420    -1.4800 nu         1 E69      -0.898400
     15 C14         12.9380     0.2970    -1.3760 c2         1 E69       0.786100
     16 N4          13.4480    -0.6060    -0.6870 n2         1 E69      -0.890100
     17 N5          13.5440     1.2350    -2.0550 nv         1 E69      -1.068200
     18 C3           0.9730    -2.0930    -0.1600 c          1 E69       0.568100
     19 O2           1.2520    -3.2850    -0.1390 o          1 E69      -0.618100
     20 C2          -0.4760    -1.6020    -0.5100 c3         1 E69       0.107300
     21 O1          -1.4630    -2.2980     0.2850 oh         1 E69      -0.633000
     22 C1          -0.7150    -0.0770    -0.3560 c3         1 E69      -0.192400
     23 C15         -2.0960     0.3200    -0.8720 c          1 E69       0.614100
     24 O4          -2.3560     0.3700    -2.0660 o          1 E69      -0.599100
     25 N6          -3.0060     0.6720     0.0990 ns         1 E69      -0.487900
     26 C16         -4.4020     1.1010    -0.1480 c3         1 E69       0.046700
     27 C21         -4.7950     2.2600     0.8240 c          1 E69       0.606100
     28 O5          -4.1540     2.4800     1.8490 o          1 E69      -0.610100
     29 C17         -5.3850    -0.0980    -0.0260 c3         1 E69      -0.091400
     30 C18         -5.2190    -1.1780    -1.1210 c3         1 E69      -0.088400
     31 C19         -6.2600    -2.3100    -1.0100 c3         1 E69       0.216800
     32 N7          -6.0680    -3.2940    -2.0840 nu         1 E69      -0.900400
     33 C20         -6.8150    -4.3750    -2.2390 c2         1 E69       0.787100
     34 N9          -6.3240    -5.0150    -3.2670 nv         1 E69      -1.067200
     35 N8          -7.7620    -4.7100    -1.5040 n2         1 E69      -0.889100
     36 N10         -5.9470     3.0250     0.5350 n          1 E69      -0.388800
     37 C22         -6.4680     4.0550     1.4800 c5         1 E69       0.025700
     38 C26         -7.3050     3.4690     2.6640 c          1 E69       0.599100
     39 O6          -7.5680     2.2900     2.8480 o          1 E69      -0.603100
     40 C23         -7.3680     4.9250     0.5450 c5         1 E69      -0.083400
     41 C24         -7.8720     3.8840    -0.4860 c5         1 E69      -0.094400
     42 C25         -6.5710     3.1080    -0.8050 c5         1 E69       0.109000
     43 N11         -7.7540     4.3900     3.5490 nt         1 E69      -0.605000
     44 H24          1.6130    -0.1600     0.0760 hn         1 E69       0.338500
     45 H14          3.6100    -2.3910     0.2130 h1         1 E69       0.090700
     46 H15          4.5750    -1.2930     2.3110 hc         1 E69       0.052700
     47 H16          3.1740    -0.2420     2.3640 hc         1 E69       0.052700
     48 H17          1.7070    -2.3000     2.6550 hc         1 E69       0.046700
     49 H21          4.3740    -3.7910     2.9790 hc         1 E69       0.036200
     50 H22          2.7690    -4.4490     3.3580 hc         1 E69       0.036200
     51 H23          3.1870    -4.0580     1.6860 hc         1 E69       0.036200
     52 H18          2.3850    -0.9280     4.6020 hc         1 E69       0.036200
     53 H19          2.2650    -2.6410     5.0440 hc         1 E69       0.036200
     54 H20          3.8610    -1.8990     4.7950 hc         1 E69       0.036200
     55 H1           5.8590    -1.5720     0.3150 hn         1 E69       0.318500
     56 H2           6.5110     0.0140    -1.9280 h1         1 E69       0.053700
     57 H3           6.5860     1.0870    -0.5090 h1         1 E69       0.053700
     58 H4           8.1920    -0.4930     0.5930 hc         1 E69       0.048200
     59 H5           8.1220    -1.5550    -0.8160 hc         1 E69       0.048200
     60 H6           9.0650     0.2810    -2.2480 hc         1 E69       0.047200
     61 H7           9.1350     1.3430    -0.8390 hc         1 E69       0.047200
     62 H8          10.7410    -0.2290     0.2740 h1         1 E69       0.052700
     63 H9          10.6640    -1.3030    -1.1400 h1         1 E69       0.052700
     64 H10         11.4540     1.5300    -1.5870 hn         1 E69       0.466000
     65 H13         14.4660    -0.5160    -0.7560 hn         1 E69       0.378400
     66 H11         13.0530     1.4270    -2.9170 hn         1 E69       0.453000
     67 H12         14.5310     1.0630    -2.1870 hn         1 E69       0.453000
     68 H25         -0.6060    -1.8520    -1.5730 h1         1 E69       0.105700
     69 H26         -1.1840    -3.2420     0.3260 ho         1 E69       0.461000
     70 H27         -0.6120     0.1940     0.7020 hc         1 E69       0.068200
     71 H28          0.0260     0.4610    -0.9600 hc         1 E69       0.068200
     72 H29         -2.6840     0.6270     1.0590 hn         1 E69       0.320500
     73 H30         -4.4660     1.5090    -1.1640 h1         1 E69       0.077700
     74 H40         -5.2590    -0.5620     0.9610 hc         1 E69       0.066700
     75 H41         -6.4170     0.2710    -0.0560 hc         1 E69       0.066700
     76 H42         -5.3050    -0.7050    -2.1080 hc         1 E69       0.044200
     77 H43         -4.2150    -1.6140    -1.0550 hc         1 E69       0.044200
     78 H44         -6.1610    -2.7960    -0.0280 h1         1 E69       0.055200
     79 H45         -7.2700    -1.8790    -1.0720 h1         1 E69       0.055200
     80 H46         -5.1150    -3.4490    -2.3860 hn         1 E69       0.465000
     81 H49         -6.0520    -4.3690    -3.9940 hn         1 E69       0.451500
     82 H50         -6.9190    -5.7620    -3.5990 hn         1 E69       0.451500
     83 H47         -8.1230    -5.6060    -1.8460 hn         1 E69       0.377400
     84 H37         -5.6600     4.6570     1.9140 h1         1 E69       0.082700
     85 H35         -8.1860     5.4360     1.0650 hc         1 E69       0.058200
     86 H36         -6.7730     5.7010     0.0490 hc         1 E69       0.058200
     87 H33         -8.6310     3.2230    -0.0500 hc         1 E69       0.062200
     88 H34         -8.3120     4.3460    -1.3770 hc         1 E69       0.062200
     89 H31         -5.9270     3.6670    -1.4970 h1         1 E69       0.052200
     90 H32         -6.7870     2.1270    -1.2460 h1         1 E69       0.052200
     91 H38         -7.5420     5.3680     3.4170 hn         1 E69       0.313500
     92 H39         -8.2990     4.0860     4.3430 hn         1 E69       0.313500
@<TRIPOS>BOND
     1     1     2 1   
     2     1    18 1   
     3     1    44 1   
     4     2     3 1   
     5     2     7 1   
     6     2    45 1   
     7     3     4 1   
     8     3    46 1   
     9     3    47 1   
    10     4     5 1   
    11     4     6 1   
    12     4    48 1   
    13     5    49 1   
    14     5    50 1   
    15     5    51 1   
    16     6    52 1   
    17     6    53 1   
    18     6    54 1   
    19     7     8 2   
    20     7     9 1   
    21     9    10 1   
    22     9    55 1   
    23    10    11 1   
    24    10    56 1   
    25    10    57 1   
    26    11    12 1   
    27    11    58 1   
    28    11    59 1   
    29    12    13 1   
    30    12    60 1   
    31    12    61 1   
    32    13    14 1   
    33    13    62 1   
    34    13    63 1   
    35    14    15 1   
    36    14    64 1   
    37    15    16 2   
    38    15    17 1   
    39    16    65 1   
    40    17    66 1   
    41    17    67 1   
    42    18    19 2   
    43    18    20 1   
    44    20    21 1   
    45    20    22 1   
    46    20    68 1   
    47    21    69 1   
    48    22    23 1   
    49    22    70 1   
    50    22    71 1   
    51    23    24 2   
    52    23    25 1   
    53    25    26 1   
    54    25    72 1   
    55    26    27 1   
    56    26    29 1   
    57    26    73 1   
    58    27    28 2   
    59    27    36 1   
    60    29    30 1   
    61    29    74 1   
    62    29    75 1   
    63    30    31 1   
    64    30    76 1   
    65    30    77 1   
    66    31    32 1   
    67    31    78 1   
    68    31    79 1   
    69    32    33 1   
    70    32    80 1   
    71    33    34 1   
    72    33    35 2   
    73    34    81 1   
    74    34    82 1   
    75    35    83 1   
    76    36    37 1   
    77    36    42 1   
    78    37    38 1   
    79    37    40 1   
    80    37    84 1   
    81    38    39 2   
    82    38    43 1   
    83    40    41 1   
    84    40    85 1   
    85    40    86 1   
    86    41    42 1   
    87    41    87 1   
    88    41    88 1   
    89    42    89 1   
    90    42    90 1   
    91    43    91 1   
    92    43    92 1   
@<TRIPOS>SUBSTRUCTURE
     1 E69         1 TEMP              0 ****  ****    0 ROOT
