@<TRIPOS>MOLECULE
E6A
   39    42     1     0     0
SMALL
No Charge or Current Charge


@<TRIPOS>ATOM
      1 O40         -0.3020    -1.4250    -2.1020 o          1 E6A      -0.495100
      2 C23         -0.8280    -0.7580    -1.2210 c          1 E6A       0.591700
      3 C24         -2.0950    -1.1860    -0.5310 ca         1 E6A      -0.123600
      4 C37         -2.4030    -2.5580    -0.4140 ca         1 E6A      -0.066000
      5 C36         -3.5660    -2.9690     0.2570 ca         1 E6A      -0.094000
      6 C35         -4.4320    -2.0120     0.8090 ca         1 E6A      -0.097000
      7 C34         -4.1410    -0.6440     0.6860 ca         1 E6A      -0.064000
      8 C25         -2.9730    -0.2160     0.0160 ca         1 E6A      -0.130600
      9 C26         -2.6980     1.2640    -0.1640 c          1 E6A       0.542700
     10 O38         -3.5230     2.1160     0.1500 o          1 E6A      -0.500100
     11 C27         -1.3600     1.6700    -0.8710 c6         1 E6A       0.086300
     12 O41         -1.5940     1.9630    -2.2670 oh         1 E6A      -0.644000
     13 C22         -0.2370     0.5930    -0.7660 c6         1 E6A      -0.149700
     14 C6           0.3150     0.5720     0.7310 c6         1 E6A      -0.138700
     15 C5           1.7260     1.2490     0.7790 c6         1 E6A      -0.020700
     16 Br           1.7060     3.1750     0.1380 br         1 E6A      -0.198000
     17 C4           2.8560     0.4360     0.0930 c          1 E6A       0.584700
     18 O20          3.8770     0.9770    -0.3160 o          1 E6A      -0.471100
     19 C18          2.6780    -1.0700     0.0470 ca         1 E6A      -0.132600
     20 C13          1.5570    -1.6910     0.6600 ca         1 E6A      -0.138600
     21 C1           0.4770    -0.8570     1.2950 c          1 E6A       0.572700
     22 O19         -0.2080    -1.2620     2.2230 o          1 E6A      -0.489100
     23 C17          3.6600    -1.8790    -0.5690 ca         1 E6A      -0.062000
     24 C16          3.5340    -3.2780    -0.5730 ca         1 E6A      -0.091000
     25 C15          2.4320    -3.8870     0.0460 ca         1 E6A      -0.093000
     26 C14          1.4480    -3.0980     0.6630 ca         1 E6A      -0.060000
     27 H1          -1.7360    -3.3100    -0.8320 ha         1 E6A       0.135000
     28 H2          -3.7950    -4.0280     0.3500 ha         1 E6A       0.120000
     29 H3          -5.3340    -2.3310     1.3280 ha         1 E6A       0.120000
     30 H4          -4.8320     0.0840     1.1080 ha         1 E6A       0.134000
     31 H5          -1.0280     2.5840    -0.3580 h1         1 E6A       0.077700
     32 H6          -2.2160     2.7270    -2.3090 ho         1 E6A       0.459000
     33 H7           0.5720     0.8270    -1.4720 hc         1 E6A       0.106700
     34 H8          -0.3710     1.0970     1.4120 hc         1 E6A       0.097700
     35 H9           2.0380     1.3400     1.8290 h1         1 E6A       0.107700
     36 H10          4.5300    -1.4270    -1.0430 ha         1 E6A       0.139000
     37 H11          4.2960    -3.8900    -1.0500 ha         1 E6A       0.123000
     38 H12          2.3380    -4.9710     0.0460 ha         1 E6A       0.123000
     39 H13          0.5940    -3.5830     1.1330 ha         1 E6A       0.137000
@<TRIPOS>BOND
     1     1     2 2   
     2     2     3 1   
     3     2    13 1   
     4     3     4 ar  
     5     3     8 ar  
     6     4     5 ar  
     7     4    27 1   
     8     5     6 ar  
     9     5    28 1   
    10     6     7 ar  
    11     6    29 1   
    12     7     8 ar  
    13     7    30 1   
    14     8     9 1   
    15     9    10 2   
    16     9    11 1   
    17    11    12 1   
    18    11    13 1   
    19    11    31 1   
    20    12    32 1   
    21    13    14 1   
    22    13    33 1   
    23    14    15 1   
    24    14    21 1   
    25    14    34 1   
    26    15    16 1   
    27    15    17 1   
    28    15    35 1   
    29    17    18 2   
    30    17    19 1   
    31    19    20 ar  
    32    19    23 ar  
    33    20    21 1   
    34    20    26 ar  
    35    21    22 2   
    36    23    24 ar  
    37    23    36 1   
    38    24    25 ar  
    39    24    37 1   
    40    25    26 ar  
    41    25    38 1   
    42    26    39 1   
@<TRIPOS>SUBSTRUCTURE
     1 E6A         1 TEMP              0 ****  ****    0 ROOT
