@<TRIPOS>MOLECULE
E6A
   39    42     1     0     0
SMALL
abcg2


@<TRIPOS>ATOM
      1 O40         -0.2850    -1.5360    -1.8550 o          1 E6A      -0.495100
      2 C23         -0.8890    -0.7780    -1.1350 c          1 E6A       0.591700
      3 C24         -2.2140    -1.1270    -0.5660 ca         1 E6A      -0.123600
      4 C37         -2.6720    -2.4370    -0.6520 ca         1 E6A      -0.066000
      5 C36         -3.8830    -2.7880    -0.0790 ca         1 E6A      -0.094000
      6 C35         -4.6470    -1.8320     0.5830 ca         1 E6A      -0.097000
      7 C34         -4.2010    -0.5240     0.6700 ca         1 E6A      -0.064000
      8 C25         -2.9870    -0.1640     0.0950 ca         1 E6A      -0.130600
      9 C26         -2.5150     1.2370     0.1780 c          1 E6A       0.542700
     10 O38         -3.0100     2.0470     0.9280 o          1 E6A      -0.500100
     11 C27         -1.3960     1.6100    -0.7870 c6         1 E6A       0.086300
     12 O41         -1.8970     1.5660    -2.0990 oh         1 E6A      -0.644000
     13 C22         -0.2900     0.5610    -0.7250 c6         1 E6A      -0.149700
     14 C6           0.3860     0.5130     0.6810 c6         1 E6A      -0.138700
     15 C5           1.7740     1.1550     0.7020 c6         1 E6A      -0.020700
     16 BR           1.7430     3.0480     0.2810 br         1 E6A      -0.198000
     17 C4           2.7350     0.4110    -0.2060 c          1 E6A       0.584700
     18 O20          3.4870     0.9620    -0.9690 o          1 E6A      -0.471100
     19 C18          2.7140    -1.0620    -0.0340 ca         1 E6A      -0.132600
     20 C13          1.6850    -1.6940     0.6750 ca         1 E6A      -0.138600
     21 C1           0.5350    -0.9180     1.1880 c          1 E6A       0.572700
     22 O19         -0.2810    -1.3940     1.9410 o          1 E6A      -0.489100
     23 C17          3.7590    -1.8180    -0.5560 ca         1 E6A      -0.062000
     24 C16          3.7830    -3.1890    -0.3660 ca         1 E6A      -0.091000
     25 C15          2.7660    -3.8150     0.3460 ca         1 E6A      -0.093000
     26 C14          1.7210    -3.0710     0.8650 ca         1 E6A      -0.060000
     27 H1          -2.0750    -3.1860    -1.1550 ha         1 E6A       0.135000
     28 H2          -4.2320    -3.8100    -0.1420 ha         1 E6A       0.120000
     29 H3          -5.5930    -2.1100     1.0280 ha         1 E6A       0.120000
     30 H4          -4.8010     0.2210     1.1750 ha         1 E6A       0.134000
     31 H5          -1.0160     2.6010    -0.5200 h1         1 E6A       0.077700
     32 H6          -2.5010     2.3040    -2.2370 ho         1 E6A       0.459000
     33 H7           0.4610     0.8060    -1.4820 hc         1 E6A       0.106700
     34 H8          -0.2390     1.0250     1.4170 hc         1 E6A       0.097700
     35 H9           2.1690     1.0840     1.7220 h1         1 E6A       0.107700
     36 H10          4.5600    -1.3310    -1.0960 ha         1 E6A       0.139000
     37 H11          4.5990    -3.7730    -0.7710 ha         1 E6A       0.123000
     38 H12          2.7880    -4.8870     0.4920 ha         1 E6A       0.123000
     39 H13          0.9210    -3.5610     1.4030 ha         1 E6A       0.137000
@<TRIPOS>BOND
     1     1     2 2   
     2     2     3 1   
     3     2    13 1   
     4     3     4 ar  
     5     3     8 ar  
     6     4     5 ar  
     7     4    27 1   
     8     5     6 ar  
     9     5    28 1   
    10     6     7 ar  
    11     6    29 1   
    12     7     8 ar  
    13     7    30 1   
    14     8     9 1   
    15     9    10 2   
    16     9    11 1   
    17    11    12 1   
    18    11    13 1   
    19    11    31 1   
    20    12    32 1   
    21    13    14 1   
    22    13    33 1   
    23    14    15 1   
    24    14    21 1   
    25    14    34 1   
    26    15    16 1   
    27    15    17 1   
    28    15    35 1   
    29    17    18 2   
    30    17    19 1   
    31    19    20 ar  
    32    19    23 ar  
    33    20    21 1   
    34    20    26 ar  
    35    21    22 2   
    36    23    24 ar  
    37    23    36 1   
    38    24    25 ar  
    39    24    37 1   
    40    25    26 ar  
    41    25    38 1   
    42    26    39 1   
@<TRIPOS>SUBSTRUCTURE
     1 E6A         1 TEMP              0 ****  ****    0 ROOT
