@<TRIPOS>MOLECULE
E6B
   34    35     1     0     0
SMALL
No Charge or Current Charge


@<TRIPOS>ATOM
      1 C1          11.8780    67.4050   125.8330 ca         1 E6B      -0.252500
      2 C2          10.9780    66.4830   126.4030 ca         1 E6B      -0.019000
      3 C3           9.9610    65.9080   125.6200 ca         1 E6B      -0.098000
      4 C4           9.8210    66.2460   124.2500 ca         1 E6B      -0.095600
      5 C5          10.7310    67.1740   123.6940 ca         1 E6B      -0.098000
      6 C6          11.7480    67.7500   124.4740 ca         1 E6B      -0.019000
      7 C7           8.7360    65.6460   123.3730 c          1 E6B       0.602700
      8 C8           6.7870    64.0440   123.2890 c3         1 E6B       0.105000
      9 C9           7.2960    62.8440   122.4690 c3         1 E6B      -0.113700
     10 C10          6.1810    62.0720   121.8230 cc         1 E6B       0.240300
     11 C11          5.6790    60.8580   122.2000 cd         1 E6B      -0.229000
     12 C12          4.6180    61.6490   120.4000 cd         1 E6B       0.390400
     13 N1          12.4710    69.4810   127.4350 n8         1 E6B      -1.007100
     14 S1          13.1780    68.1390   126.8340 sy         1 E6B       1.124600
     15 O1          13.4430    67.3320   128.0230 o          1 E6B      -0.541500
     16 O2          14.2520    68.6660   125.9940 o          1 E6B      -0.541500
     17 O3           8.6200    65.9400   122.1900 o          1 E6B      -0.581100
     18 N2           7.8750    64.7490   123.9740 ns         1 E6B      -0.504900
     19 N3           4.6730    60.5890   121.2850 na         1 E6B      -0.301500
     20 N4           5.5330    62.5540   120.7220 nc         1 E6B      -0.666000
     21 H1          11.0620    66.2080   127.4530 ha         1 E6B       0.139500
     22 H2           9.2890    65.2010   126.0990 ha         1 E6B       0.129500
     23 H3          10.6520    67.4570   122.6460 ha         1 E6B       0.129500
     24 H4          12.4320    68.4640   124.0170 ha         1 E6B       0.139500
     25 H5           6.2590    64.7460   122.6290 h1         1 E6B       0.061700
     26 H6           6.0710    63.6910   124.0430 h1         1 E6B       0.061700
     27 H7           7.8650    62.1770   123.1270 hc         1 E6B       0.056700
     28 H8           7.9940    63.1950   121.7000 hc         1 E6B       0.056700
     29 H9           5.9530    60.1990   123.0170 h4         1 E6B       0.156000
     30 H10          3.9130    61.6900   119.5770 h5         1 E6B       0.056100
     31 H11         12.6620    69.3600   128.4270 hn         1 E6B       0.475500
     32 H12         13.1580    70.1830   127.1710 hn         1 E6B       0.475500
     33 H13          8.0250    64.5590   124.9560 hn         1 E6B       0.313500
     34 H14          4.0760    59.7700   121.2500 hn         1 E6B       0.352000
@<TRIPOS>BOND
     1     1     2 ar  
     2     1     6 ar  
     3     1    14 1   
     4     2     3 ar  
     5     2    21 1   
     6     3     4 ar  
     7     3    22 1   
     8     4     5 ar  
     9     4     7 1   
    10     5     6 ar  
    11     5    23 1   
    12     6    24 1   
    13     7    17 2   
    14     7    18 1   
    15     8     9 1   
    16     8    18 1   
    17     8    25 1   
    18     8    26 1   
    19     9    10 1   
    20     9    27 1   
    21     9    28 1   
    22    10    11 2   
    23    10    20 1   
    24    11    19 1   
    25    11    29 1   
    26    12    19 1   
    27    12    20 2   
    28    12    30 1   
    29    13    14 1   
    30    13    31 1   
    31    13    32 1   
    32    14    15 2   
    33    14    16 2   
    34    18    33 1   
    35    19    34 1   
@<TRIPOS>SUBSTRUCTURE
     1 E6B         1 TEMP              0 ****  ****    0 ROOT
