@<TRIPOS>MOLECULE
E6B
   34    35     1     0     0
SMALL
abcg2


@<TRIPOS>ATOM
      1 C1          11.8720    67.3710   125.7460 ca         1 E6B      -0.252500
      2 C2          11.2950    66.1870   126.1720 ca         1 E6B      -0.019000
      3 C3          10.3030    65.6040   125.3970 ca         1 E6B      -0.098000
      4 C4           9.9030    66.1950   124.2030 ca         1 E6B      -0.095600
      5 C5          10.5130    67.3750   123.7810 ca         1 E6B      -0.098000
      6 C6          11.4900    67.9740   124.5530 ca         1 E6B      -0.019000
      7 C7           8.8680    65.5800   123.3090 c          1 E6B       0.602700
      8 C8           6.8700    64.1670   123.2040 c3         1 E6B       0.105000
      9 C9           7.3120    62.7710   122.7550 c3         1 E6B      -0.113700
     10 C10          6.2320    62.0670   122.0060 cc         1 E6B       0.240300
     11 C11          5.4610    61.0150   122.4160 cd         1 E6B      -0.229000
     12 C12          4.8770    61.6500   120.4070 cd         1 E6B       0.390400
     13 N1          12.3520    69.4060   127.3630 n8         1 E6B      -1.007100
     14 S1          13.1570    68.1250   126.7080 sy         1 E6B       1.124600
     15 O1          13.5910    67.1560   127.7050 o          1 E6B      -0.541500
     16 O2          14.1530    68.6910   125.8100 o          1 E6B      -0.541500
     17 O3           8.9190    65.7400   122.0980 o          1 E6B      -0.581100
     18 N2           7.9050    64.8780   123.9220 ns         1 E6B      -0.504900
     19 N3           4.6050    60.7640   121.3830 na         1 E6B      -0.301500
     20 N4           5.8520    62.4540   120.7480 nc         1 E6B      -0.666000
     21 H1          11.6090    65.7100   127.0900 ha         1 E6B       0.139500
     22 H2           9.8720    64.6690   125.7270 ha         1 E6B       0.129500
     23 H3          10.2190    67.8310   122.8450 ha         1 E6B       0.129500
     24 H4          11.9480    68.8970   124.2240 ha         1 E6B       0.139500
     25 H5           6.5610    64.7550   122.3400 h1         1 E6B       0.061700
     26 H6           6.0080    64.0870   123.8660 h1         1 E6B       0.061700
     27 H7           7.6010    62.1840   123.6290 hc         1 E6B       0.056700
     28 H8           8.2000    62.8660   122.1240 hc         1 E6B       0.056700
     29 H9           5.4510    60.4420   123.3280 h4         1 E6B       0.156000
     30 H10          4.3400    61.6630   119.4720 h5         1 E6B       0.056100
     31 H11         11.7490    69.1420   128.1350 hn         1 E6B       0.475500
     32 H12         12.9920    70.1420   127.6510 hn         1 E6B       0.475500
     33 H13          7.8890    64.8320   124.9270 hn         1 E6B       0.313500
     34 H14          3.9040    60.0410   121.3510 hn         1 E6B       0.352000
@<TRIPOS>BOND
     1     1     2 ar  
     2     1     6 ar  
     3     1    14 1   
     4     2     3 ar  
     5     2    21 1   
     6     3     4 ar  
     7     3    22 1   
     8     4     5 ar  
     9     4     7 1   
    10     5     6 ar  
    11     5    23 1   
    12     6    24 1   
    13     7    17 2   
    14     7    18 1   
    15     8     9 1   
    16     8    18 1   
    17     8    25 1   
    18     8    26 1   
    19     9    10 1   
    20     9    27 1   
    21     9    28 1   
    22    10    11 2   
    23    10    20 1   
    24    11    19 1   
    25    11    29 1   
    26    12    19 1   
    27    12    20 2   
    28    12    30 1   
    29    13    14 1   
    30    13    31 1   
    31    13    32 1   
    32    14    15 2   
    33    14    16 2   
    34    18    33 1   
    35    19    34 1   
@<TRIPOS>SUBSTRUCTURE
     1 E6B         1 TEMP              0 ****  ****    0 ROOT
