@<TRIPOS>MOLECULE
E6C
   49    48     1     0     0
SMALL
abcg2


@<TRIPOS>ATOM
      1 O1           0.6720     1.9100    -3.8210 oh         1 E6C      -0.637000
      2 C2           1.7390    -0.1290    -3.0260 c3         1 E6C      -0.244400
      3 C3           0.4670     0.7060    -3.1310 c3         1 E6C       0.123300
      4 C4          -0.0540     0.9790    -1.7270 c          1 E6C       0.560100
      5 O5           0.3000     1.9640    -1.0930 o          1 E6C      -0.642100
      6 N6          -0.8820     0.0500    -1.2230 ns         1 E6C      -0.487900
      7 C7          -1.2300     0.0260     0.1730 c3         1 E6C       0.038700
      8 C8           0.0070    -0.2880     1.0190 c          1 E6C       0.580100
      9 O9           0.8870    -1.0320     0.6140 o          1 E6C      -0.584100
     10 N10          0.0070     0.2630     2.2390 ns         1 E6C      -0.509900
     11 C11          1.0550     0.0380     3.2130 c3         1 E6C       0.104000
     12 C12          0.6000     0.4740     4.5970 c3         1 E6C      -0.091400
     13 C13          1.6920     0.3670     5.6620 c3         1 E6C      -0.057700
     14 C14          1.1960     0.9600     6.9780 c3         1 E6C      -0.088100
     15 C15          2.1520    -1.0730     5.8720 c3         1 E6C      -0.088100
     16 C16          2.2890    -0.5540    -4.4020 c          1 E6C       0.729000
     17 O17          1.4480    -0.9280    -5.2430 o          1 E6C      -0.733500
     18 O18          3.5260    -0.5240    -4.5460 o          1 E6C      -0.733500
     19 C19         -2.3030    -1.0310     0.4350 c3         1 E6C      -0.081400
     20 C20         -3.6190    -0.8200    -0.3170 c3         1 E6C      -0.058700
     21 C21         -4.5880    -1.9440     0.0380 c3         1 E6C      -0.088100
     22 C22         -4.2420     0.5410    -0.0230 c3         1 E6C      -0.088100
     23 HO1          1.2200     2.4790    -3.2680 ho         1 E6C       0.443000
     24 H21          2.4960     0.4210    -2.4580 hc         1 E6C       0.036700
     25 H22          1.5250    -1.0350    -2.4480 hc         1 E6C       0.036700
     26 H3          -0.2750     0.1420    -3.7020 h1         1 E6C       0.092700
     27 HN6         -1.0540    -0.7830    -1.7650 hn         1 E6C       0.327500
     28 H7          -1.6160     1.0090     0.4580 h1         1 E6C       0.067700
     29 HN1         -0.7010     0.9460     2.4590 hn         1 E6C       0.307500
     30 H111         1.9610     0.5850     2.9310 h1         1 E6C       0.052700
     31 H112         1.3110    -1.0220     3.2080 h1         1 E6C       0.052700
     32 H121        -0.2670    -0.1220     4.9040 hc         1 E6C       0.038700
     33 H122         0.2590     1.5140     4.5460 hc         1 E6C       0.038700
     34 H13          2.5520     0.9570     5.3230 hc         1 E6C       0.050700
     35 H141         1.9680     0.9180     7.7470 hc         1 E6C       0.031533
     36 H142         0.8980     2.0030     6.8630 hc         1 E6C       0.031533
     37 H143         0.3300     0.4050     7.3470 hc         1 E6C       0.031533
     38 H151         1.3180    -1.6980     6.2030 hc         1 E6C       0.031533
     39 H152         2.5590    -1.5180     4.9640 hc         1 E6C       0.031533
     40 H153         2.9290    -1.1280     6.6350 hc         1 E6C       0.031533
     41 H191        -1.8950    -2.0160     0.1810 hc         1 E6C       0.048700
     42 H192        -2.5060    -1.0490     1.5090 hc         1 E6C       0.048700
     43 H20         -3.4230    -0.8770    -1.3930 hc         1 E6C       0.060700
     44 H211        -5.5200    -1.8510    -0.5220 hc         1 E6C       0.031200
     45 H212        -4.1630    -2.9240    -0.1880 hc         1 E6C       0.031200
     46 H213        -4.8350    -1.9260     1.1020 hc         1 E6C       0.031200
     47 H221        -4.3890     0.6830     1.0510 hc         1 E6C       0.031200
     48 H222        -3.6270     1.3660    -0.3870 hc         1 E6C       0.031200
     49 H223        -5.2170     0.6330    -0.5040 hc         1 E6C       0.031200
@<TRIPOS>BOND
     1     1     3 1   
     2     1    23 1   
     3     2     3 1   
     4     2    16 1   
     5     2    24 1   
     6     2    25 1   
     7     3     4 1   
     8     3    26 1   
     9     4     5 2   
    10     4     6 1   
    11     6     7 1   
    12     6    27 1   
    13     7     8 1   
    14     7    19 1   
    15     7    28 1   
    16     8     9 2   
    17     8    10 1   
    18    10    11 1   
    19    10    29 1   
    20    11    12 1   
    21    11    30 1   
    22    11    31 1   
    23    12    13 1   
    24    12    32 1   
    25    12    33 1   
    26    13    14 1   
    27    13    15 1   
    28    13    34 1   
    29    14    35 1   
    30    14    36 1   
    31    14    37 1   
    32    15    38 1   
    33    15    39 1   
    34    15    40 1   
    35    16    17 1   
    36    16    18 1   
    37    19    20 1   
    38    19    41 1   
    39    19    42 1   
    40    20    21 1   
    41    20    22 1   
    42    20    43 1   
    43    21    44 1   
    44    21    45 1   
    45    21    46 1   
    46    22    47 1   
    47    22    48 1   
    48    22    49 1   
@<TRIPOS>SUBSTRUCTURE
     1 E6C         1 TEMP              0 ****  ****    0 ROOT
