@<TRIPOS>MOLECULE
E6C
   49    48     1     0     0
SMALL
No Charge or Current Charge


@<TRIPOS>ATOM
      1 O1          -0.7370     0.2900    -4.6800 oh         1 E6C      -0.637000
      2 C2           1.5660     0.6420    -3.9400 c3         1 E6C      -0.244400
      3 C3           0.1880     0.0170    -3.6030 c3         1 E6C       0.123300
      4 C4          -0.3650     0.5390    -2.2350 c          1 E6C       0.560100
      5 O5          -0.9100     1.6310    -2.1210 o          1 E6C      -0.642100
      6 N6          -0.2340    -0.3300    -1.1700 ns         1 E6C      -0.487900
      7 C7          -0.7070    -0.0770     0.2120 c3         1 E6C       0.038700
      8 C8           0.3870    -0.5000     1.2370 c          1 E6C       0.580100
      9 O9           1.3520    -1.1950     0.9420 o          1 E6C      -0.584100
     10 N10          0.2010    -0.0270     2.5190 ns         1 E6C      -0.509900
     11 C11          1.1000    -0.3070     3.6380 c3         1 E6C       0.104000
     12 C12          0.5610     0.2890     4.9560 c3         1 E6C      -0.091400
     13 C13          1.5080     0.1150     6.1740 c3         1 E6C      -0.057700
     14 C14          0.9700     0.8790     7.4060 c3         1 E6C      -0.088100
     15 C15          1.7710    -1.3700     6.5230 c3         1 E6C      -0.088100
     16 C16          2.2840    -0.1960    -5.0010 c          1 E6C       0.729000
     17 O17          2.9130    -1.1720    -4.6240 o          1 E6C      -0.733500
     18 O18          2.1870     0.1360    -6.1730 o          1 E6C      -0.733500
     19 C19         -2.0450    -0.8230     0.4870 c3         1 E6C      -0.081400
     20 C20         -3.2780    -0.3320    -0.3220 c3         1 E6C      -0.058700
     21 C21         -4.4720    -1.2990    -0.1490 c3         1 E6C      -0.088100
     22 C22         -3.6950     1.1130     0.0470 c3         1 E6C      -0.088100
     23 HO1         -1.0730     1.2020    -4.5290 ho         1 E6C       0.443000
     24 H21          1.3890     1.6670    -4.2900 hc         1 E6C       0.036700
     25 H22          2.1330     0.5940    -3.0020 hc         1 E6C       0.036700
     26 H3           0.3200    -1.0690    -3.4930 h1         1 E6C       0.092700
     27 HN6          0.2610    -1.1980    -1.3450 hn         1 E6C       0.327500
     28 H7          -0.8540     1.0010     0.3520 h1         1 E6C       0.067700
     29 HN1         -0.6180     0.5450     2.6860 hn         1 E6C       0.307500
     30 H111         2.0860     0.1220     3.4150 h1         1 E6C       0.052700
     31 H112         1.2090    -1.3950     3.7350 h1         1 E6C       0.052700
     32 H121        -0.4110    -0.1650     5.1840 hc         1 E6C       0.038700
     33 H122         0.3810     1.3600     4.8020 hc         1 E6C       0.038700
     34 H13          2.4740     0.5670     5.9120 hc         1 E6C       0.050700
     35 H141         1.6690     0.8000     8.2480 hc         1 E6C       0.031533
     36 H142         0.8400     1.9430     7.1760 hc         1 E6C       0.031533
     37 H143         0.0020     0.4750     7.7240 hc         1 E6C       0.031533
     38 H151         0.8310    -1.8940     6.7340 hc         1 E6C       0.031533
     39 H152         2.2780    -1.8870     5.7000 hc         1 E6C       0.031533
     40 H153         2.4140    -1.4510     7.4080 hc         1 E6C       0.031533
     41 H191        -1.8860    -1.8900     0.2870 hc         1 E6C       0.048700
     42 H192        -2.2860    -0.7490     1.5540 hc         1 E6C       0.048700
     43 H20         -3.0160    -0.3410    -1.3880 hc         1 E6C       0.060700
     44 H211        -5.3260    -0.9740    -0.7550 hc         1 E6C       0.031200
     45 H212        -4.2000    -2.3120    -0.4670 hc         1 E6C       0.031200
     46 H213        -4.7910    -1.3420     0.9000 hc         1 E6C       0.031200
     47 H221        -3.9510     1.1860     1.1110 hc         1 E6C       0.031200
     48 H222        -2.8910     1.8270    -0.1620 hc         1 E6C       0.031200
     49 H223        -4.5700     1.4230    -0.5370 hc         1 E6C       0.031200
@<TRIPOS>BOND
     1     1     3 1   
     2     1    23 1   
     3     2     3 1   
     4     2    16 1   
     5     2    24 1   
     6     2    25 1   
     7     3     4 1   
     8     3    26 1   
     9     4     5 2   
    10     4     6 1   
    11     6     7 1   
    12     6    27 1   
    13     7     8 1   
    14     7    19 1   
    15     7    28 1   
    16     8     9 2   
    17     8    10 1   
    18    10    11 1   
    19    10    29 1   
    20    11    12 1   
    21    11    30 1   
    22    11    31 1   
    23    12    13 1   
    24    12    32 1   
    25    12    33 1   
    26    13    14 1   
    27    13    15 1   
    28    13    34 1   
    29    14    35 1   
    30    14    36 1   
    31    14    37 1   
    32    15    38 1   
    33    15    39 1   
    34    15    40 1   
    35    16    17 1   
    36    16    18 1   
    37    19    20 1   
    38    19    41 1   
    39    19    42 1   
    40    20    21 1   
    41    20    22 1   
    42    20    43 1   
    43    21    44 1   
    44    21    45 1   
    45    21    46 1   
    46    22    47 1   
    47    22    48 1   
    48    22    49 1   
@<TRIPOS>SUBSTRUCTURE
     1 E6C         1 TEMP              0 ****  ****    0 ROOT
