@<TRIPOS>MOLECULE
E6D
   56    55     1     0     0
SMALL
No Charge or Current Charge


@<TRIPOS>ATOM
      1 C14         -6.3480    -3.3530     0.8680 c3         1 E6D      -0.089600
      2 C13         -6.5190    -2.0910    -0.0110 c3         1 E6D      -0.056700
      3 C15         -7.9460    -1.5140     0.1310 c3         1 E6D      -0.089600
      4 C12         -5.4490    -1.0050     0.2810 c3         1 E6D      -0.093400
      5 C11         -3.9970    -1.4490     0.0070 c3         1 E6D       0.102000
      6 N10         -3.0540    -0.3500     0.2100 ns         1 E6D      -0.500900
      7 C8          -1.7140    -0.4060    -0.1100 c          1 E6D       0.587100
      8 O9          -1.2100    -1.4160    -0.5880 o          1 E6D      -0.608100
      9 C7          -0.9070     0.8910     0.1890 c3         1 E6D       0.031700
     10 C19         -1.2840     2.0250    -0.8080 c3         1 E6D      -0.085400
     11 C20         -0.6960     3.4310    -0.4990 c3         1 E6D      -0.058700
     12 C22         -0.9380     4.4000    -1.6790 c3         1 E6D      -0.091100
     13 C21         -1.2490     4.0300     0.8160 c3         1 E6D      -0.091100
     14 N6           0.5460     0.6040     0.1370 ns         1 E6D      -0.475900
     15 C4           1.4900     1.0560     1.0420 c          1 E6D       0.567100
     16 O5           1.1730     1.7320     2.0120 o          1 E6D      -0.605100
     17 C3           2.9820     0.6370     0.7960 c3         1 E6D       0.109300
     18 O1           3.5560     0.0330     1.9790 oh         1 E6D      -0.635000
     19 C2           3.2130    -0.3150    -0.4090 c3         1 E6D      -0.176400
     20 C16          4.7000    -0.5720    -0.6370 c          1 E6D       0.605100
     21 O18          5.4500     0.2460    -1.1520 o          1 E6D      -0.492000
     22 O17          5.0430    -1.8720    -0.3660 os         1 E6D      -0.446100
     23 C23          6.4050    -2.2710    -0.5900 c3         1 E6D       0.167600
     24 H1          -7.1420    -4.0810     0.6570 hc         1 E6D       0.034867
     25 H2          -5.3900    -3.8470     0.6730 hc         1 E6D       0.034867
     26 H3          -6.3950    -3.0970     1.9340 hc         1 E6D       0.034867
     27 H4          -6.4010    -2.4020    -1.0580 hc         1 E6D       0.048700
     28 H5          -8.1330    -1.1830     1.1600 hc         1 E6D       0.034867
     29 H6          -8.0860    -0.6540    -0.5360 hc         1 E6D       0.034867
     30 H7          -8.6980    -2.2680    -0.1290 hc         1 E6D       0.034867
     31 H8          -5.6620    -0.1260    -0.3390 hc         1 E6D       0.042200
     32 H9          -5.5340    -0.6820     1.3260 hc         1 E6D       0.042200
     33 H10         -3.7200    -2.2730     0.6770 h1         1 E6D       0.054700
     34 H11         -3.9120    -1.8020    -1.0300 h1         1 E6D       0.054700
     35 H12         -3.3970     0.5160     0.6080 hn         1 E6D       0.314500
     36 H13         -1.1820     1.1920     1.2080 h1         1 E6D       0.080700
     37 H14         -0.9640     1.7150    -1.8110 hc         1 E6D       0.054700
     38 H15         -2.3770     2.1150    -0.8560 hc         1 E6D       0.054700
     39 H16          0.3910     3.3320    -0.3890 hc         1 E6D       0.049700
     40 H17         -2.0110     4.5480    -1.8500 hc         1 E6D       0.036200
     41 H18         -0.4840     5.3780    -1.4770 hc         1 E6D       0.036200
     42 H19         -0.4930     4.0080    -2.6020 hc         1 E6D       0.036200
     43 H20         -0.8170     5.0220     0.9990 hc         1 E6D       0.036200
     44 H21         -2.3400     4.1370     0.7680 hc         1 E6D       0.036200
     45 H22         -1.0050     3.4010     1.6780 hc         1 E6D       0.036200
     46 H23          0.8750    -0.0080    -0.6010 hn         1 E6D       0.324500
     47 H24          3.5020     1.5790     0.5700 h1         1 E6D       0.094700
     48 H25          3.2590     0.5730     2.7490 ho         1 E6D       0.465000
     49 H26          2.7050    -1.2660    -0.2080 hc         1 E6D       0.089200
     50 H27          2.8160     0.1530    -1.3170 hc         1 E6D       0.089200
     51 H28          6.6820    -2.1480    -1.6460 h1         1 E6D       0.048700
     52 H29          7.0940    -1.6740     0.0230 h1         1 E6D       0.048700
     53 C24          6.5230    -3.7520    -0.1990 c3         1 E6D      -0.097100
     54 H30          7.5490    -4.1050    -0.3530 hc         1 E6D       0.046367
     55 H31          6.2640    -3.8950     0.8570 hc         1 E6D       0.046367
     56 H32          5.8530    -4.3680    -0.8110 hc         1 E6D       0.046367
@<TRIPOS>BOND
     1     1     2 1   
     2     1    24 1   
     3     1    25 1   
     4     1    26 1   
     5     2     3 1   
     6     2     4 1   
     7     2    27 1   
     8     3    28 1   
     9     3    29 1   
    10     3    30 1   
    11     4     5 1   
    12     4    31 1   
    13     4    32 1   
    14     5     6 1   
    15     5    33 1   
    16     5    34 1   
    17     6     7 1   
    18     6    35 1   
    19     7     8 2   
    20     7     9 1   
    21     9    10 1   
    22     9    14 1   
    23     9    36 1   
    24    10    11 1   
    25    10    37 1   
    26    10    38 1   
    27    11    12 1   
    28    11    13 1   
    29    11    39 1   
    30    12    40 1   
    31    12    41 1   
    32    12    42 1   
    33    13    43 1   
    34    13    44 1   
    35    13    45 1   
    36    14    15 1   
    37    14    46 1   
    38    15    16 2   
    39    15    17 1   
    40    17    18 1   
    41    17    19 1   
    42    17    47 1   
    43    18    48 1   
    44    19    20 1   
    45    19    49 1   
    46    19    50 1   
    47    20    21 2   
    48    20    22 1   
    49    22    23 1   
    50    23    51 1   
    51    23    52 1   
    52    23    53 1   
    53    53    54 1   
    54    53    55 1   
    55    53    56 1   
@<TRIPOS>SUBSTRUCTURE
     1 E6D         1 TEMP              0 ****  ****    0 ROOT
