@<TRIPOS>MOLECULE
E6D
   56    55     1     0     0
SMALL
abcg2


@<TRIPOS>ATOM
      1 C14         -5.5770    -3.4140     0.9810 c3         1 E6D      -0.089600
      2 C13         -5.8140    -2.2680     0.0010 c3         1 E6D      -0.056700
      3 C15         -7.2810    -1.8520     0.0180 c3         1 E6D      -0.089600
      4 C12         -4.9260    -1.0580     0.2940 c3         1 E6D      -0.093400
      5 C11         -3.4400    -1.3220     0.1000 c3         1 E6D       0.102000
      6 N10         -2.6810    -0.1100     0.3360 ns         1 E6D      -0.500900
      7 C8          -1.4330     0.0840    -0.1030 c          1 E6D       0.587100
      8 O9          -0.7930    -0.7510    -0.7230 o          1 E6D      -0.608100
      9 C7          -0.8760     1.4840     0.1800 c3         1 E6D       0.031700
     10 C19         -1.3400     2.4480    -0.9140 c3         1 E6D      -0.085400
     11 C20         -0.9250     3.9080    -0.7140 c3         1 E6D      -0.058700
     12 C22         -1.4210     4.7380    -1.8930 c3         1 E6D      -0.091100
     13 C21         -1.4430     4.4770     0.6020 c3         1 E6D      -0.091100
     14 N6           0.5620     1.4400     0.2320 ns         1 E6D      -0.475900
     15 C4           1.2020     0.7240     1.1650 c          1 E6D       0.567100
     16 O5           0.6450     0.2350     2.1370 o          1 E6D      -0.605100
     17 C3           2.6900     0.4970     0.9290 c3         1 E6D       0.109300
     18 O1           3.3640     0.3230     2.1400 oh         1 E6D      -0.635000
     19 C2           2.8390    -0.7230     0.0160 c3         1 E6D      -0.176400
     20 C16          4.2910    -1.0130    -0.2640 c          1 E6D       0.605100
     21 O18          5.1150    -0.1640    -0.4980 o          1 E6D      -0.492000
     22 O17          4.5510    -2.3090    -0.2520 os         1 E6D      -0.446100
     23 C23          5.8890    -2.7350    -0.5640 c3         1 E6D       0.167600
     24 H1          -6.2310    -4.2580     0.7540 hc         1 E6D       0.034867
     25 H2          -4.5520    -3.7830     0.9530 hc         1 E6D       0.034867
     26 H3          -5.7900    -3.0960     2.0050 hc         1 E6D       0.034867
     27 H4          -5.5740    -2.6230    -1.0080 hc         1 E6D       0.048700
     28 H5          -7.5700    -1.4880     1.0070 hc         1 E6D       0.034867
     29 H6          -7.4810    -1.0560    -0.7010 hc         1 E6D       0.034867
     30 H7          -7.9330    -2.6920    -0.2270 hc         1 E6D       0.034867
     31 H8          -5.2180    -0.2340    -0.3650 hc         1 E6D       0.042200
     32 H9          -5.1100    -0.7160     1.3190 hc         1 E6D       0.042200
     33 H10         -3.0930    -2.1170     0.7670 h1         1 E6D       0.054700
     34 H11         -3.2570    -1.6620    -0.9210 h1         1 E6D       0.054700
     35 H12         -3.1110     0.6050     0.9030 hn         1 E6D       0.314500
     36 H13         -1.2530     1.8250     1.1480 h1         1 E6D       0.080700
     37 H14         -0.9660     2.0890    -1.8790 hc         1 E6D       0.054700
     38 H15         -2.4310     2.3960    -0.9710 hc         1 E6D       0.054700
     39 H16          0.1690     3.9660    -0.7030 hc         1 E6D       0.049700
     40 H17         -2.5120     4.7130    -1.9570 hc         1 E6D       0.036200
     41 H18         -1.1190     5.7820    -1.7930 hc         1 E6D       0.036200
     42 H19         -1.0250     4.3670    -2.8400 hc         1 E6D       0.036200
     43 H20         -1.1920     5.5350     0.6900 hc         1 E6D       0.036200
     44 H21         -2.5300     4.3890     0.6670 hc         1 E6D       0.036200
     45 H22         -1.0160     3.9720     1.4700 hc         1 E6D       0.036200
     46 H23          1.0760     1.7500    -0.5790 hn         1 E6D       0.324500
     47 H24          3.1260     1.3700     0.4360 h1         1 E6D       0.094700
     48 H25          2.8140    -0.2290     2.7110 ho         1 E6D       0.465000
     49 H26          2.3470    -1.5930     0.4540 hc         1 E6D       0.089200
     50 H27          2.3500    -0.5360    -0.9450 hc         1 E6D       0.089200
     51 H28          6.1590    -2.3910    -1.5640 h1         1 E6D       0.048700
     52 H29          6.5890    -2.2910     0.1460 h1         1 E6D       0.048700
     53 C24          5.9210    -4.2420    -0.4840 c3         1 E6D      -0.097100
     54 H30          6.9270    -4.5890    -0.7200 hc         1 E6D       0.046367
     55 H31          5.6710    -4.5980     0.5150 hc         1 E6D       0.046367
     56 H32          5.2350    -4.6960    -1.1990 hc         1 E6D       0.046367
@<TRIPOS>BOND
     1     1     2 1   
     2     1    24 1   
     3     1    25 1   
     4     1    26 1   
     5     2     3 1   
     6     2     4 1   
     7     2    27 1   
     8     3    28 1   
     9     3    29 1   
    10     3    30 1   
    11     4     5 1   
    12     4    31 1   
    13     4    32 1   
    14     5     6 1   
    15     5    33 1   
    16     5    34 1   
    17     6     7 1   
    18     6    35 1   
    19     7     8 2   
    20     7     9 1   
    21     9    10 1   
    22     9    14 1   
    23     9    36 1   
    24    10    11 1   
    25    10    37 1   
    26    10    38 1   
    27    11    12 1   
    28    11    13 1   
    29    11    39 1   
    30    12    40 1   
    31    12    41 1   
    32    12    42 1   
    33    13    43 1   
    34    13    44 1   
    35    13    45 1   
    36    14    15 1   
    37    14    46 1   
    38    15    16 2   
    39    15    17 1   
    40    17    18 1   
    41    17    19 1   
    42    17    47 1   
    43    18    48 1   
    44    19    20 1   
    45    19    49 1   
    46    19    50 1   
    47    20    21 2   
    48    20    22 1   
    49    22    23 1   
    50    23    51 1   
    51    23    52 1   
    52    23    53 1   
    53    53    54 1   
    54    53    55 1   
    55    53    56 1   
@<TRIPOS>SUBSTRUCTURE
     1 E6D         1 TEMP              0 ****  ****    0 ROOT
