@<TRIPOS>MOLECULE
E6E
   79    85     1     0     0
SMALL
No Charge or Current Charge


@<TRIPOS>ATOM
      1 C1          -1.3120     5.4260     2.3890 c3         1 E6E       0.145900
      2 O1          -1.1280     4.3160     1.4940 os         1 E6E      -0.355100
      3 C2          -0.5350     4.4540     0.2520 ca         1 E6E       0.128100
      4 C3          -0.1000     5.7110    -0.2300 ca         1 E6E      -0.199000
      5 C4           0.5040     5.8140    -1.4940 ca         1 E6E      -0.072000
      6 C5           0.6770     4.6690    -2.2850 ca         1 E6E      -0.146000
      7 C6           0.2470     3.4180    -1.8150 ca         1 E6E      -0.050000
      8 C7          -0.3610     3.3030    -0.5480 ca         1 E6E      -0.115300
      9 C8          -0.7970     1.9270    -0.0610 c3         1 E6E       0.212900
     10 O2          -2.1170     1.6500    -0.5660 os         1 E6E      -0.328100
     11 C9          -2.7010     0.3980    -0.4520 ca         1 E6E       0.114100
     12 C10         -2.1070    -0.6270     0.3170 ca         1 E6E      -0.141000
     13 C11         -2.6440    -1.9380     0.3470 ca         1 E6E      -0.121900
     14 C12         -1.8950    -3.0410     1.0670 ce         1 E6E       0.407900
     15 N1          -0.6980    -2.7910     1.5040 n2         1 E6E      -0.456300
     16 N2           0.3670    -3.5130     0.9840 n          1 E6E      -0.175800
     17 C13          1.5310    -2.7310     0.4740 c6         1 E6E       0.139700
     18 C14          1.1770    -2.0330    -0.8700 c6         1 E6E      -0.116900
     19 C15          2.3170    -1.1200    -1.3760 c6         1 E6E       0.220800
     20 N3           2.7100    -0.1630    -0.3060 nh         1 E6E      -0.779300
     21 C16          3.1220     1.1540    -0.6050 ca         1 E6E       0.442900
     22 N4           3.6800     1.3680    -1.8170 nb         1 E6E      -0.280000
     23 C17          4.0580     2.6360    -2.1040 ca         1 E6E       0.164900
     24 N5           3.9300     3.7180    -1.3060 nb         1 E6E      -0.187000
     25 C18          3.3630     3.4830    -0.1110 ca         1 E6E       0.156800
     26 C19          3.1050     4.5030     0.8700 cc         1 E6E      -0.297800
     27 C20          2.4680     3.9890     1.9890 cd         1 E6E      -0.146400
     28 S1           2.1670     2.2290     1.8840 ss         1 E6E       0.086400
     29 C21          2.9460     2.2300     0.2830 ca         1 E6E      -0.336000
     30 C22          3.1850    -0.8410     0.9250 c6         1 E6E       0.220800
     31 C23          2.0350    -1.6840     1.5100 c6         1 E6E      -0.116900
     32 C24          0.2370    -4.9170     0.8010 c          1 E6E       0.557000
     33 O3           1.1400    -5.6170     0.3570 o          1 E6E      -0.537000
     34 C25         -1.1270    -5.5040     1.2400 c6         1 E6E      -0.147700
     35 C26         -1.4630    -6.9330     0.7430 c6         1 E6E      -0.029200
     36 C27         -2.8810    -7.3300     1.1510 c2         1 E6E      -0.219200
     37 C28         -3.8030    -6.4500     1.5930 c2         1 E6E      -0.226200
     38 C29         -3.5450    -4.9490     1.7180 c6         1 E6E      -0.035200
     39 C30         -2.3010    -4.5260     0.8870 c6         1 E6E      -0.121000
     40 C31         -3.8220    -2.1850    -0.3950 ca         1 E6E      -0.089000
     41 C32         -4.4500    -1.1600    -1.1220 ca         1 E6E      -0.179000
     42 C33         -3.8930     0.1360    -1.1630 ca         1 E6E       0.125100
     43 O4          -4.4680     1.1570    -1.9010 os         1 E6E      -0.320100
     44 C34         -5.6760     0.9760    -2.6610 c3         1 E6E       0.144900
     45 H1          -1.9540     6.1920     1.9350 h1         1 E6E       0.043033
     46 H2          -1.7900     5.0900     3.3180 h1         1 E6E       0.043033
     47 H3          -0.3480     5.8820     2.6490 h1         1 E6E       0.043033
     48 H4          -0.2180     6.6140     0.3610 ha         1 E6E       0.117000
     49 H5           0.8410     6.7830    -1.8590 ha         1 E6E       0.113000
     50 H6           1.1480     4.7490    -3.2620 ha         1 E6E       0.118000
     51 H7           0.3910     2.5340    -2.4320 ha         1 E6E       0.139000
     52 H8          -0.0790     1.1830    -0.4310 h1         1 E6E       0.051200
     53 H9          -0.7830     1.8850     1.0350 h1         1 E6E       0.051200
     54 H10         -1.2010    -0.4150     0.8770 ha         1 E6E       0.134000
     55 H11          2.3620    -3.4250     0.2820 h1         1 E6E       0.077700
     56 H12          0.9410    -2.7860    -1.6320 hc         1 E6E       0.065700
     57 H13          0.2750    -1.4220    -0.7510 hc         1 E6E       0.065700
     58 H14          3.1800    -1.7340    -1.6770 h1         1 E6E       0.064200
     59 H15          1.9630    -0.5880    -2.2720 h1         1 E6E       0.064200
     60 H16          4.5090     2.8010    -3.0810 h5         1 E6E       0.044100
     61 H17          3.3570     5.5530     0.7480 ha         1 E6E       0.220000
     62 H18          2.1430     4.5260     2.8740 h4         1 E6E       0.222000
     63 H19          4.0400    -1.4940     0.6940 h1         1 E6E       0.064200
     64 H20          3.5330    -0.1210     1.6790 h1         1 E6E       0.064200
     65 H21          1.2230    -1.0070     1.8070 hc         1 E6E       0.065700
     66 H22          2.3730    -2.1930     2.4220 hc         1 E6E       0.065700
     67 H23         -1.0700    -5.4990     2.3380 hc         1 E6E       0.081700
     68 H24         -1.3670    -6.9910    -0.3510 hc         1 E6E       0.065700
     69 H25         -0.7420    -7.6500     1.1610 hc         1 E6E       0.065700
     70 H26         -3.1230    -8.3930     1.0760 ha         1 E6E       0.178000
     71 H27         -4.8010    -6.7910     1.8770 ha         1 E6E       0.176000
     72 H28         -4.4380    -4.3970     1.3980 hc         1 E6E       0.058700
     73 H29         -3.3960    -4.6940     2.7770 hc         1 E6E       0.058700
     74 H30         -2.5340    -4.6660    -0.1780 hc         1 E6E       0.076700
     75 H31         -4.2640    -3.1760    -0.4350 ha         1 E6E       0.116000
     76 H32         -5.3560    -1.4000    -1.6700 ha         1 E6E       0.121000
     77 H33         -6.5070     0.6810    -2.0080 h1         1 E6E       0.041367
     78 H34         -5.9520     1.9110    -3.1630 h1         1 E6E       0.041367
     79 H35         -5.5400     0.2050    -3.4310 h1         1 E6E       0.041367
@<TRIPOS>BOND
     1     1     2 1   
     2     1    45 1   
     3     1    46 1   
     4     1    47 1   
     5     2     3 1   
     6     3     4 ar  
     7     3     8 ar  
     8     4     5 ar  
     9     4    48 1   
    10     5     6 ar  
    11     5    49 1   
    12     6     7 ar  
    13     6    50 1   
    14     7     8 ar  
    15     7    51 1   
    16     8     9 1   
    17     9    10 1   
    18     9    52 1   
    19     9    53 1   
    20    10    11 1   
    21    11    12 ar  
    22    11    42 ar  
    23    12    13 ar  
    24    12    54 1   
    25    13    14 1   
    26    13    40 ar  
    27    14    15 2   
    28    14    39 1   
    29    15    16 1   
    30    16    17 1   
    31    16    32 1   
    32    17    18 1   
    33    17    31 1   
    34    17    55 1   
    35    18    19 1   
    36    18    56 1   
    37    18    57 1   
    38    19    20 1   
    39    19    58 1   
    40    19    59 1   
    41    20    21 1   
    42    20    30 1   
    43    21    22 ar  
    44    21    29 ar  
    45    22    23 ar  
    46    23    24 ar  
    47    23    60 1   
    48    24    25 ar  
    49    25    26 1   
    50    25    29 ar  
    51    26    27 2   
    52    26    61 1   
    53    27    28 1   
    54    27    62 1   
    55    28    29 1   
    56    30    31 1   
    57    30    63 1   
    58    30    64 1   
    59    31    65 1   
    60    31    66 1   
    61    32    33 2   
    62    32    34 1   
    63    34    35 1   
    64    34    39 1   
    65    34    67 1   
    66    35    36 1   
    67    35    68 1   
    68    35    69 1   
    69    36    37 2   
    70    36    70 1   
    71    37    38 1   
    72    37    71 1   
    73    38    39 1   
    74    38    72 1   
    75    38    73 1   
    76    39    74 1   
    77    40    41 ar  
    78    40    75 1   
    79    41    42 ar  
    80    41    76 1   
    81    42    43 1   
    82    43    44 1   
    83    44    77 1   
    84    44    78 1   
    85    44    79 1   
@<TRIPOS>SUBSTRUCTURE
     1 E6E         1 TEMP              0 ****  ****    0 ROOT
