@<TRIPOS>MOLECULE
E6E
   79    85     1     0     0
SMALL
abcg2


@<TRIPOS>ATOM
      1 C1           0.4860     3.9860     3.1910 c3         1 E6E       0.145900
      2 O1          -0.2940     3.4830     2.1230 os         1 E6E      -0.355100
      3 C2          -0.9810     4.3520     1.3500 ca         1 E6E       0.128100
      4 C3          -0.9140     5.7340     1.4820 ca         1 E6E      -0.199000
      5 C4          -1.6420     6.5440     0.6170 ca         1 E6E      -0.072000
      6 C5          -2.4280     5.9830    -0.3730 ca         1 E6E      -0.146000
      7 C6          -2.4940     4.5980    -0.4980 ca         1 E6E      -0.050000
      8 C7          -1.7800     3.7700     0.3540 ca         1 E6E      -0.115300
      9 C8          -1.8150     2.2710     0.2600 c3         1 E6E       0.212900
     10 O2          -2.7400     1.8890    -0.7310 os         1 E6E      -0.328100
     11 C9          -2.8610     0.5750    -1.0030 ca         1 E6E       0.114100
     12 C10         -2.2020    -0.4290    -0.3250 ca         1 E6E      -0.141000
     13 C11         -2.3740    -1.7760    -0.6700 ca         1 E6E      -0.121900
     14 C12         -1.5710    -2.7900     0.0430 ce         1 E6E       0.407900
     15 N1          -0.3940    -2.4100     0.3470 n2         1 E6E      -0.456300
     16 N2           0.4800    -3.2240     0.9900 n          1 E6E      -0.175800
     17 C13          1.8380    -2.6860     1.0440 c6         1 E6E       0.139700
     18 C14          2.5260    -2.8050    -0.3140 c6         1 E6E      -0.116900
     19 C15          3.9040    -2.1490    -0.2980 c6         1 E6E       0.220800
     20 N3           3.7740    -0.7610     0.1250 nh         1 E6E      -0.779300
     21 C16          3.8570     0.2480    -0.7680 ca         1 E6E       0.442900
     22 N4           4.5570     0.0150    -1.8810 nb         1 E6E      -0.280000
     23 C17          4.7220     0.9820    -2.7720 ca         1 E6E       0.164900
     24 N5           4.2620     2.2110    -2.7210 nb         1 E6E      -0.187000
     25 C18          3.5090     2.4700    -1.6390 ca         1 E6E       0.156800
     26 C19          2.8160     3.7010    -1.4190 cc         1 E6E      -0.297800
     27 C20          2.0570     3.6630    -0.3020 cd         1 E6E      -0.146400
     28 S1           2.1550     2.1680     0.5440 ss         1 E6E       0.086400
     29 C21          3.2710     1.5330    -0.6250 ca         1 E6E      -0.336000
     30 C22          3.2350    -0.6570     1.4660 c6         1 E6E       0.220800
     31 C23          1.8310    -1.2410     1.5460 c6         1 E6E      -0.116900
     32 C24          0.1450    -4.4170     1.5540 c          1 E6E       0.557000
     33 O3           0.9750    -5.1530     2.0570 o          1 E6E      -0.537000
     34 C25         -1.3350    -4.7070     1.5850 c6         1 E6E      -0.147700
     35 C26         -1.6320    -6.1860     1.7820 c6         1 E6E      -0.029200
     36 C27         -3.1050    -6.4450     1.6940 c2         1 E6E      -0.219200
     37 C28         -3.9780    -5.5560     1.2300 c2         1 E6E      -0.226200
     38 C29         -3.5870    -4.2190     0.6750 c6         1 E6E      -0.035200
     39 C30         -2.0900    -4.1630     0.3690 c6         1 E6E      -0.121000
     40 C31         -3.2280    -2.0920    -1.7130 ca         1 E6E      -0.089000
     41 C32         -3.9010    -1.0860    -2.4050 ca         1 E6E      -0.179000
     42 C33         -3.7320     0.2460    -2.0630 ca         1 E6E       0.125100
     43 O4          -4.3350     1.2830    -2.6650 os         1 E6E      -0.320100
     44 C34         -5.2180     1.0130    -3.7360 c3         1 E6E       0.144900
     45 H1          -0.1170     4.5510     3.9050 h1         1 E6E       0.043033
     46 H2           0.9110     3.1210     3.6940 h1         1 E6E       0.043033
     47 H3           1.3030     4.6210     2.8380 h1         1 E6E       0.043033
     48 H4          -0.3080     6.1950     2.2510 ha         1 E6E       0.117000
     49 H5          -1.5830     7.6190     0.7270 ha         1 E6E       0.113000
     50 H6          -2.9930     6.6120    -1.0480 ha         1 E6E       0.118000
     51 H7          -3.1120     4.1650    -1.2720 ha         1 E6E       0.139000
     52 H8          -0.8150     1.8890     0.0150 h1         1 E6E       0.051200
     53 H9          -2.0910     1.8400     1.2300 h1         1 E6E       0.051200
     54 H10         -1.5380    -0.1960     0.4960 ha         1 E6E       0.134000
     55 H11          2.3850    -3.2960     1.7640 h1         1 E6E       0.077700
     56 H12          2.6310    -3.8580    -0.5850 hc         1 E6E       0.065700
     57 H13          1.9130    -2.3280    -1.0840 hc         1 E6E       0.065700
     58 H14          4.5670    -2.6630     0.4050 h1         1 E6E       0.064200
     59 H15          4.3660    -2.1940    -1.2780 h1         1 E6E       0.064200
     60 H16          5.3120     0.7180    -3.6440 h5         1 E6E       0.044100
     61 H17          2.8820     4.5500    -2.0830 ha         1 E6E       0.220000
     62 H18          1.4310     4.4550     0.0800 h4         1 E6E       0.222000
     63 H19          3.9090    -1.2130     2.1250 h1         1 E6E       0.064200
     64 H20          3.2670     0.3690     1.8240 h1         1 E6E       0.064200
     65 H21          1.1510    -0.6390     0.9410 hc         1 E6E       0.065700
     66 H22          1.4770    -1.2040     2.5780 hc         1 E6E       0.065700
     67 H23         -1.7060    -4.1610     2.4660 hc         1 E6E       0.081700
     68 H24         -1.1000    -6.7850     1.0360 hc         1 E6E       0.065700
     69 H25         -1.2630    -6.5190     2.7530 hc         1 E6E       0.065700
     70 H26         -3.4580    -7.4070     2.0490 ha         1 E6E       0.178000
     71 H27         -5.0360    -5.7940     1.2290 ha         1 E6E       0.176000
     72 H28         -4.1760    -4.0210    -0.2200 hc         1 E6E       0.058700
     73 H29         -3.8520    -3.4250     1.3830 hc         1 E6E       0.058700
     74 H30         -1.8870    -4.8140    -0.4940 hc         1 E6E       0.076700
     75 H31         -3.3620    -3.1160    -2.0360 ha         1 E6E       0.116000
     76 H32         -4.5510    -1.3660    -3.2230 ha         1 E6E       0.121000
     77 H33         -6.0640     0.3960    -3.4210 h1         1 E6E       0.041367
     78 H34         -5.5930     1.9750    -4.0760 h1         1 E6E       0.041367
     79 H35         -4.7110     0.5180    -4.5680 h1         1 E6E       0.041367
@<TRIPOS>BOND
     1     1     2 1   
     2     1    45 1   
     3     1    46 1   
     4     1    47 1   
     5     2     3 1   
     6     3     4 ar  
     7     3     8 ar  
     8     4     5 ar  
     9     4    48 1   
    10     5     6 ar  
    11     5    49 1   
    12     6     7 ar  
    13     6    50 1   
    14     7     8 ar  
    15     7    51 1   
    16     8     9 1   
    17     9    10 1   
    18     9    52 1   
    19     9    53 1   
    20    10    11 1   
    21    11    12 ar  
    22    11    42 ar  
    23    12    13 ar  
    24    12    54 1   
    25    13    14 1   
    26    13    40 ar  
    27    14    15 2   
    28    14    39 1   
    29    15    16 1   
    30    16    17 1   
    31    16    32 1   
    32    17    18 1   
    33    17    31 1   
    34    17    55 1   
    35    18    19 1   
    36    18    56 1   
    37    18    57 1   
    38    19    20 1   
    39    19    58 1   
    40    19    59 1   
    41    20    21 1   
    42    20    30 1   
    43    21    22 ar  
    44    21    29 ar  
    45    22    23 ar  
    46    23    24 ar  
    47    23    60 1   
    48    24    25 ar  
    49    25    26 1   
    50    25    29 ar  
    51    26    27 2   
    52    26    61 1   
    53    27    28 1   
    54    27    62 1   
    55    28    29 1   
    56    30    31 1   
    57    30    63 1   
    58    30    64 1   
    59    31    65 1   
    60    31    66 1   
    61    32    33 2   
    62    32    34 1   
    63    34    35 1   
    64    34    39 1   
    65    34    67 1   
    66    35    36 1   
    67    35    68 1   
    68    35    69 1   
    69    36    37 2   
    70    36    70 1   
    71    37    38 1   
    72    37    71 1   
    73    38    39 1   
    74    38    72 1   
    75    38    73 1   
    76    39    74 1   
    77    40    41 ar  
    78    40    75 1   
    79    41    42 ar  
    80    41    76 1   
    81    42    43 1   
    82    43    44 1   
    83    44    77 1   
    84    44    78 1   
    85    44    79 1   
@<TRIPOS>SUBSTRUCTURE
     1 E6E         1 TEMP              0 ****  ****    0 ROOT
