@<TRIPOS>MOLECULE
E6F
   22    22     1     0     0
SMALL
No Charge or Current Charge


@<TRIPOS>ATOM
      1 N           18.0430    18.6120    -4.3170 n8         1 E6F      -1.014200
      2 CA          19.3020    18.6620    -6.4660 c6         1 E6F      -0.191700
      3 C           18.4970    17.7760    -7.4430 c          1 E6F       0.716000
      4 O           18.6750    16.5670    -7.4010 o          1 E6F      -0.740500
      5 CB          18.3650    19.4460    -5.4920 c6         1 E6F       0.181500
      6 CG          18.9610    20.8170    -5.0430 c6         1 E6F      -0.068400
      7 CD          20.5020    20.7570    -4.9040 c6         1 E6F      -0.064400
      8 CE          21.1850    20.4100    -6.2580 c6         1 E6F      -0.075400
      9 CZ          20.2600    19.6220    -7.2290 c6         1 E6F      -0.048400
     10 H1          17.3510    19.1090    -3.7460 hn         1 E6F       0.396500
     11 H2          17.5370    17.7790    -4.6380 hn         1 E6F       0.396500
     12 H4          19.9360    17.9880    -5.8740 hc         1 E6F       0.045700
     13 H6          17.4070    19.6550    -5.9910 h1         1 E6F       0.015700
     14 H7          18.6990    21.5870    -5.7830 hc         1 E6F       0.017700
     15 H8          18.5090    21.1480    -4.0980 hc         1 E6F       0.017700
     16 H9          20.7680    20.0000    -4.1530 hc         1 E6F       0.026200
     17 H10         20.8870    21.7130    -4.5260 hc         1 E6F       0.026200
     18 H11         22.0960    19.8300    -6.0600 hc         1 E6F       0.013200
     19 H12         21.5150    21.3330    -6.7540 hc         1 E6F       0.013200
     20 H13         20.8740    19.0570    -7.9440 hc         1 E6F       0.039200
     21 H14         19.6690    20.3300    -7.8280 hc         1 E6F       0.039200
     22 O2          17.7360    18.3160    -8.2320 o          1 E6F      -0.740500
@<TRIPOS>BOND
     1     1     5 1   
     2     1    10 1   
     3     1    11 1   
     4     2     3 1   
     5     2     5 1   
     6     2     9 1   
     7     2    12 1   
     8     3     4 1   
     9     3    22 1   
    10     5     6 1   
    11     5    13 1   
    12     6     7 1   
    13     6    14 1   
    14     6    15 1   
    15     7     8 1   
    16     7    16 1   
    17     7    17 1   
    18     8     9 1   
    19     8    18 1   
    20     8    19 1   
    21     9    20 1   
    22     9    21 1   
@<TRIPOS>SUBSTRUCTURE
     1 E6F         1 TEMP              0 ****  ****    0 ROOT
