@<TRIPOS>MOLECULE
E6F
   22    22     1     0     0
SMALL
abcg2


@<TRIPOS>ATOM
      1 N           18.1580    18.5620    -4.3420 n8         1 E6F      -1.014200
      2 CA          19.3170    18.7270    -6.4980 c6         1 E6F      -0.191700
      3 C           18.5060    17.7690    -7.3950 c          1 E6F       0.716000
      4 O           17.8420    16.8880    -6.7980 o          1 E6F      -0.740500
      5 CB          18.3840    19.4370    -5.4880 c6         1 E6F       0.181500
      6 CG          18.9850    20.7680    -5.0110 c6         1 E6F      -0.068400
      7 CD          20.4990    20.6800    -4.9030 c6         1 E6F      -0.064400
      8 CE          21.1150    20.4830    -6.2960 c6         1 E6F      -0.075400
      9 CZ          20.1590    19.7510    -7.2480 c6         1 E6F      -0.048400
     10 H1          17.3930    18.9300    -3.7880 hn         1 E6F       0.396500
     11 H2          17.8440    17.6710    -4.7090 hn         1 E6F       0.396500
     12 H4          20.0020    18.1050    -5.9020 hc         1 E6F       0.045700
     13 H6          17.4440    19.6770    -6.0110 h1         1 E6F       0.015700
     14 H7          18.7170    21.5660    -5.7100 hc         1 E6F       0.017700
     15 H8          18.5320    21.0430    -4.0530 hc         1 E6F       0.017700
     16 H9          20.7560    19.8390    -4.2530 hc         1 E6F       0.026200
     17 H10         20.9100    21.5710    -4.4240 hc         1 E6F       0.026200
     18 H11         22.0490    19.9220    -6.2080 hc         1 E6F       0.013200
     19 H12         21.3830    21.4520    -6.7260 hc         1 E6F       0.013200
     20 H13         20.7270    19.2710    -8.0460 hc         1 E6F       0.039200
     21 H14         19.4980    20.4700    -7.7430 hc         1 E6F       0.039200
     22 O2          18.5550    17.9320    -8.6300 o          1 E6F      -0.740500
@<TRIPOS>BOND
     1     1     5 1   
     2     1    10 1   
     3     1    11 1   
     4     2     3 1   
     5     2     5 1   
     6     2     9 1   
     7     2    12 1   
     8     3     4 1   
     9     3    22 1   
    10     5     6 1   
    11     5    13 1   
    12     6     7 1   
    13     6    14 1   
    14     6    15 1   
    15     7     8 1   
    16     7    16 1   
    17     7    17 1   
    18     8     9 1   
    19     8    18 1   
    20     8    19 1   
    21     9    20 1   
    22     9    21 1   
@<TRIPOS>SUBSTRUCTURE
     1 E6F         1 TEMP              0 ****  ****    0 ROOT
