@<TRIPOS>MOLECULE
E6H
   18    18     1     0     0
SMALL
bcc


@<TRIPOS>ATOM
      1 C2          -6.3920     3.9570    15.4770 ca         1 E6H      -0.076000
      2 C4          -4.5990     5.2020    14.4710 ca         1 E6H      -0.094000
      3 C5          -3.7690     4.0830    14.4940 ca         1 E6H      -0.089300
      4 C6          -2.3590     4.1580    13.9890 c3         1 E6H      -0.047800
      5 O           -7.3070     1.4850    16.4110 o          1 E6H      -0.497100
      6 SE          -4.9440     0.0780    16.2850 sh         1 E6H      -0.527400
      7 C1          -5.5770     2.8240    15.5120 ca         1 E6H      -0.164600
      8 C7          -4.2770     2.8990    15.0160 ca         1 E6H      -0.069000
      9 C3          -5.8970     5.1400    14.9580 ca         1 E6H      -0.141000
     10 H1          -7.4040     3.9120    15.8560 ha         1 E6H       0.151000
     11 H2          -4.2250     6.1340    14.0620 ha         1 E6H       0.134000
     12 H3          -1.6860     4.5180    14.7700 hc         1 E6H       0.046367
     13 H4          -1.9950     3.1810    13.6710 hc         1 E6H       0.046367
     14 H5          -2.2730     4.8430    13.1470 hc         1 E6H       0.046367
     15 H6          -5.9930    -0.7820    16.8090 hs         1 E6H       0.286800
     16 H7          -3.6260     2.0310    15.0110 ha         1 E6H       0.151000
     17 H8          -6.5270     6.0200    14.9300 ha         1 E6H       0.139000
     18 C           -6.1580     1.5820    16.0770 c          1 E6H       0.706300
@<TRIPOS>BOND
     1     1     7 ar  
     2     1     9 ar  
     3     1    10 1   
     4     2     3 ar  
     5     2     9 ar  
     6     2    11 1   
     7     3     4 1   
     8     3     8 ar  
     9     4    12 1   
    10     4    13 1   
    11     4    14 1   
    12     5    18 2   
    13     6    15 1   
    14     6    18 1   
    15     7     8 ar  
    16     7    18 1   
    17     8    16 1   
    18     9    17 1   
@<TRIPOS>SUBSTRUCTURE
     1 E6H         1 TEMP              0 ****  ****    0 ROOT
