@<TRIPOS>MOLECULE
E6H
   18    18     1     0     0
SMALL
No Charge or Current Charge


@<TRIPOS>ATOM
      1 C2          -6.4040     3.9410    15.4650 ca         1 E6H      -0.058000
      2 C4          -4.6020     5.2170    14.4420 ca         1 E6H      -0.076000
      3 C5          -3.7640     4.0900    14.5030 ca         1 E6H      -0.089300
      4 C6          -2.3340     4.1690    13.9870 c3         1 E6H      -0.047800
      5 O           -7.2760     1.4220    16.5600 o          1 E6H      -0.497100
      6 SE          -5.0390     0.0790    16.2000 sh         1 E6H      -0.527400
      7 C1          -5.5780     2.7960    15.5380 ca         1 E6H      -0.164600
      8 C7          -4.2510     2.8860    15.0500 ca         1 E6H      -0.051000
      9 C3          -5.9180     5.1410    14.9210 ca         1 E6H      -0.123000
     10 H1          -7.4290     3.9050    15.8310 ha         1 E6H       0.133000
     11 H2          -4.2340     6.1520    14.0240 ha         1 E6H       0.116000
     12 H3          -1.6340     4.3700    14.8060 hc         1 E6H       0.046367
     13 H4          -2.0300     3.2300    13.5090 hc         1 E6H       0.046367
     14 H5          -2.2180     4.9670    13.2440 hc         1 E6H       0.046367
     15 H6          -6.0170    -0.6630    16.7730 hs         1 E6H       0.286800
     16 H7          -3.5810     2.0310    15.0890 ha         1 E6H       0.133000
     17 H8          -6.5640     6.0150    14.8720 ha         1 E6H       0.121000
     18 C           -6.1350     1.5170    16.1320 c          1 E6H       0.706300
@<TRIPOS>BOND
     1     1     7 ar  
     2     1     9 ar  
     3     1    10 1   
     4     2     3 ar  
     5     2     9 ar  
     6     2    11 1   
     7     3     4 1   
     8     3     8 ar  
     9     4    12 1   
    10     4    13 1   
    11     4    14 1   
    12     5    18 2   
    13     6    15 1   
    14     6    18 1   
    15     7     8 ar  
    16     7    18 1   
    17     8    16 1   
    18     9    17 1   
@<TRIPOS>SUBSTRUCTURE
     1 E6H         1 TEMP              0 ****  ****    0 ROOT
