@<TRIPOS>MOLECULE
E6J
   82    85     1     0     0
SMALL
abcg2


@<TRIPOS>ATOM
      1 C3          31.1970     6.0770    14.3580 c3         1 E6J       0.078700
      2 C5          32.3070     6.9130    15.0160 c3         1 E6J      -0.054100
      3 C8          31.7820     8.1720    15.6490 ca         1 E6J      -0.040300
      4 C11         31.3040     9.4390    17.6600 ca         1 E6J       0.150100
      5 C12         30.7600    10.4560    16.8740 ca         1 E6J      -0.150000
      6 C14         30.7380    10.3270    15.4960 ca         1 E6J      -0.067000
      7 C16         31.2480     9.1940    14.8750 ca         1 E6J      -0.134000
      8 C19         31.8160     8.7410    19.9380 c3         1 E6J       0.169600
      9 C22         30.7540     8.2780    20.9150 c3         1 E6J      -0.092400
     10 C25         29.6050     7.4710    20.3080 c3         1 E6J      -0.105400
     11 C28         28.4970     8.3360    19.7260 c3         1 E6J       0.163600
     12 C32         27.1840     6.9280    18.2800 ca         1 E6J       0.139100
     13 C33         28.1380     6.8900    17.2660 ca         1 E6J      -0.180000
     14 C35         27.8350     6.2320    16.0750 ca         1 E6J      -0.115600
     15 C36         26.6110     5.6060    15.8970 ca         1 E6J      -0.101000
     16 C38         25.6760     5.6060    16.9280 ca         1 E6J      -0.057300
     17 C39         25.9630     6.2720    18.1080 ca         1 E6J      -0.106000
     18 C41         24.3480     4.9330    16.7160 c3         1 E6J       0.203900
     19 C45         22.5240     3.9740    17.8120 c3         1 E6J       0.145900
     20 C49         28.8060     6.2310    14.9380 c          1 E6J       0.614700
     21 C51         31.7210     4.6890    13.9440 c3         1 E6J       0.167300
     22 C55         30.6920     3.8960    13.1520 c3         1 E6J       0.159800
     23 C60         30.3970     1.8250    11.9190 c3         1 E6J       0.216100
     24 C63         30.8370     2.1900    10.5200 ca         1 E6J      -0.088300
     25 C64         32.0270     2.8660    10.2860 ca         1 E6J      -0.083000
     26 C66         32.4420     3.1930     8.9950 ca         1 E6J      -0.078300
     27 C67         31.6460     2.8060     7.9220 ca         1 E6J      -0.109000
     28 C69         30.4550     2.1220     8.1400 ca         1 E6J      -0.113000
     29 C71         30.0480     1.8230     9.4300 ca         1 E6J      -0.116000
     30 C73         33.7110     3.9850     8.7800 c3         1 E6J      -0.013400
     31 C75         33.5510     5.4060     9.3240 c3         1 E6J      -0.086600
     32 C79         34.9280     3.2990     9.4000 c3         1 E6J      -0.086600
     33 C9          31.8050     8.2970    17.0370 ca         1 E6J      -0.210000
     34 N1          30.0790     5.9580    15.2690 ns         1 E6J      -0.501900
     35 N58         31.1290     2.5270    12.9500 n7         1 E6J      -0.865400
     36 O18         31.2810     9.6580    18.9910 os         1 E6J      -0.363100
     37 O31         27.3240     7.5830    19.4460 os         1 E6J      -0.350100
     38 O44         23.8160     4.5120    17.9410 os         1 E6J      -0.451000
     39 O50         28.4340     6.4570    13.7950 o          1 E6J      -0.596100
     40 O53         32.8760     4.8170    13.1430 oh         1 E6J      -0.643000
     41 H1          30.8370     6.6010    13.4700 h1         1 E6J       0.097700
     42 H2          32.8160     6.3100    15.7750 hc         1 E6J       0.052700
     43 H3          33.0530     7.1590    14.2580 hc         1 E6J       0.052700
     44 H4          30.3620    11.3440    17.3490 ha         1 E6J       0.128000
     45 H5          30.3170    11.1270    14.8990 ha         1 E6J       0.119000
     46 H6          31.2280     9.1110    13.7950 ha         1 E6J       0.124000
     47 H7          32.2720     7.8730    19.4620 h1         1 E6J       0.046700
     48 H8          32.6110     9.2610    20.4770 h1         1 E6J       0.046700
     49 H9          31.2720     7.6540    21.6470 hc         1 E6J       0.054700
     50 H10         30.3620     9.1330    21.4730 hc         1 E6J       0.054700
     51 H11         29.1570     6.8630    21.0990 hc         1 E6J       0.050700
     52 H12         29.9940     6.7660    19.5660 hc         1 E6J       0.050700
     53 H13         28.8100     8.8980    18.8430 h1         1 E6J       0.062200
     54 H14         28.1870     9.0700    20.4720 h1         1 E6J       0.062200
     55 H15         29.0960     7.3880    17.3670 ha         1 E6J       0.127000
     56 H16         26.3930     5.1000    14.9650 ha         1 E6J       0.129000
     57 H17         25.2410     6.3050    18.9140 ha         1 E6J       0.143000
     58 H18         23.6650     5.6370    16.2180 h1         1 E6J       0.033200
     59 H19         24.4720     4.0870    16.0260 h1         1 E6J       0.033200
     60 H20         22.1800     3.6850    18.8040 h1         1 E6J       0.030367
     61 H21         21.8170     4.7030    17.3970 h1         1 E6J       0.030367
     62 H22         22.5100     3.0880    17.1670 h1         1 E6J       0.030367
     63 H23         31.9540     4.1380    14.8690 h1         1 E6J       0.022700
     64 H24         30.5610     4.3750    12.1770 h1         1 E6J       0.054700
     65 H25         29.7180     3.9430    13.6530 h1         1 E6J       0.054700
     66 H26         29.3060     1.9650    11.9900 h1         1 E6J       0.035200
     67 H27         30.5650     0.7540    12.0630 h1         1 E6J       0.035200
     68 H28         32.6250     3.1680    11.1380 ha         1 E6J       0.144000
     69 H29         31.9540     3.0460     6.9100 ha         1 E6J       0.107000
     70 H30         29.8390     1.8300     7.2980 ha         1 E6J       0.108000
     71 H31         29.1120     1.3000     9.5950 ha         1 E6J       0.105000
     72 H32         33.8800     4.0530     7.7010 hc         1 E6J       0.043700
     73 H33         32.7190     5.9220     8.8410 hc         1 E6J       0.035200
     74 H34         33.3570     5.3960    10.3990 hc         1 E6J       0.035200
     75 H35         34.4540     5.9940     9.1490 hc         1 E6J       0.035200
     76 H36         35.0550     2.2860     9.0160 hc         1 E6J       0.035200
     77 H37         35.8380     3.8570     9.1740 hc         1 E6J       0.035200
     78 H38         34.8410     3.2380    10.4860 hc         1 E6J       0.035200
     79 H39         32.2320     7.4820    17.6050 ha         1 E6J       0.109000
     80 H40         30.2810     5.7120    16.2260 hn         1 E6J       0.314500
     81 H41         31.0380     2.0180    13.8190 hn         1 E6J       0.407000
     82 H43         33.6340     4.9800    13.7110 ho         1 E6J       0.437000
@<TRIPOS>BOND
     1     1     2 1   
     2     1    21 1   
     3     1    34 1   
     4     1    41 1   
     5     2     3 1   
     6     2    42 1   
     7     2    43 1   
     8     3     7 ar  
     9     3    33 ar  
    10     4     5 ar  
    11     4    33 ar  
    12     4    36 1   
    13     5     6 ar  
    14     5    44 1   
    15     6     7 ar  
    16     6    45 1   
    17     7    46 1   
    18     8     9 1   
    19     8    36 1   
    20     8    47 1   
    21     8    48 1   
    22     9    10 1   
    23     9    49 1   
    24     9    50 1   
    25    10    11 1   
    26    10    51 1   
    27    10    52 1   
    28    11    37 1   
    29    11    53 1   
    30    11    54 1   
    31    12    13 ar  
    32    12    17 ar  
    33    12    37 1   
    34    13    14 ar  
    35    13    55 1   
    36    14    15 ar  
    37    14    20 1   
    38    15    16 ar  
    39    15    56 1   
    40    16    17 ar  
    41    16    18 1   
    42    17    57 1   
    43    18    38 1   
    44    18    58 1   
    45    18    59 1   
    46    19    38 1   
    47    19    60 1   
    48    19    61 1   
    49    19    62 1   
    50    20    34 1   
    51    20    39 2   
    52    21    22 1   
    53    21    40 1   
    54    21    63 1   
    55    22    35 1   
    56    22    64 1   
    57    22    65 1   
    58    23    24 1   
    59    23    35 1   
    60    23    66 1   
    61    23    67 1   
    62    24    25 ar  
    63    24    29 ar  
    64    25    26 ar  
    65    25    68 1   
    66    26    27 ar  
    67    26    30 1   
    68    27    28 ar  
    69    27    69 1   
    70    28    29 ar  
    71    28    70 1   
    72    29    71 1   
    73    30    31 1   
    74    30    32 1   
    75    30    72 1   
    76    31    73 1   
    77    31    74 1   
    78    31    75 1   
    79    32    76 1   
    80    32    77 1   
    81    32    78 1   
    82    33    79 1   
    83    34    80 1   
    84    35    81 1   
    85    40    82 1   
@<TRIPOS>SUBSTRUCTURE
     1 E6J         1 TEMP              0 ****  ****    0 ROOT
