@<TRIPOS>MOLECULE
E6J
   82    85     1     0     0
SMALL
No Charge or Current Charge


@<TRIPOS>ATOM
      1 C3          31.7890     6.3600    14.6880 c3         1 E6J       0.078700
      2 C5          32.7960     7.3940    15.2720 c3         1 E6J      -0.054100
      3 C8          32.1350     8.5600    15.9960 ca         1 E6J      -0.040300
      4 C11         31.3260     9.5430    18.0830 ca         1 E6J       0.150100
      5 C12         30.8110    10.6310    17.3600 ca         1 E6J      -0.150000
      6 C14         30.9550    10.6900    15.9630 ca         1 E6J      -0.067000
      7 C16         31.6080     9.6500    15.2810 ca         1 E6J      -0.134000
      8 C19         31.3570     8.3560    20.2690 c3         1 E6J       0.169600
      9 C22         30.1470     8.1340    21.2020 c3         1 E6J      -0.092400
     10 C25         28.8900     7.5660    20.4860 c3         1 E6J      -0.105400
     11 C28         28.1210     8.5930    19.6220 c3         1 E6J       0.163600
     12 C32         27.0020     7.1870    17.8960 ca         1 E6J       0.139100
     13 C33         28.1610     7.0210    17.0960 ca         1 E6J      -0.180000
     14 C35         28.0880     6.3000    15.8740 ca         1 E6J      -0.115600
     15 C36         26.8470     5.7460    15.4870 ca         1 E6J      -0.101000
     16 C38         25.7020     5.8870    16.2900 ca         1 E6J      -0.057300
     17 C39         25.7890     6.6120    17.4900 ca         1 E6J      -0.106000
     18 C41         24.3760     5.2770    15.8560 c3         1 E6J       0.203900
     19 C45         23.0420     3.2770    16.1110 c3         1 E6J       0.145900
     20 C49         29.2740     6.1350    14.9400 c          1 E6J       0.614700
     21 C51         32.4320     4.9410    14.5470 c3         1 E6J       0.167300
     22 C55         31.5270     3.8670    13.8860 c3         1 E6J       0.159800
     23 C60         31.6250     1.6540    12.7060 c3         1 E6J       0.216100
     24 C63         31.1550     2.2060    11.3640 ca         1 E6J      -0.088300
     25 C64         32.0970     2.6120    10.3980 ca         1 E6J      -0.083000
     26 C66         31.6790     3.1340     9.1550 ca         1 E6J      -0.078300
     27 C67         30.3000     3.2420     8.8870 ca         1 E6J      -0.109000
     28 C69         29.3560     2.8380     9.8460 ca         1 E6J      -0.113000
     29 C71         29.7810     2.3220    11.0810 ca         1 E6J      -0.116000
     30 C73         32.7020     3.5830     8.1100 c3         1 E6J      -0.013400
     31 C75         33.5560     4.7630     8.6270 c3         1 E6J      -0.086600
     32 C79         33.5830     2.4060     7.6350 c3         1 E6J      -0.086600
     33 C9          32.0100     8.5180    17.3960 ca         1 E6J      -0.210000
     34 N1          30.5320     6.3430    15.4690 ns         1 E6J      -0.501900
     35 N58         32.3400     2.6770    13.4960 n7         1 E6J      -0.865400
     36 O18         31.0850     9.5060    19.4430 os         1 E6J      -0.363100
     37 O31         26.9700     7.9420    19.0540 os         1 E6J      -0.350100
     38 O44         24.2570     3.9690    16.4420 os         1 E6J      -0.451000
     39 O50         29.1240     5.8560    13.7580 o          1 E6J      -0.596100
     40 O53         33.6300     4.9900    13.7640 oh         1 E6J      -0.643000
     41 H1          31.5350     6.7070    13.6760 h1         1 E6J       0.097700
     42 H2          33.4700     6.8790    15.9680 hc         1 E6J       0.052700
     43 H3          33.4380     7.7640    14.4630 hc         1 E6J       0.052700
     44 H4          30.2830    11.4230    17.8840 ha         1 E6J       0.128000
     45 H5          30.5460    11.5330    15.4080 ha         1 E6J       0.119000
     46 H6          31.6970     9.6870    14.1970 ha         1 E6J       0.124000
     47 H7          31.4870     7.4330    19.6950 h1         1 E6J       0.046700
     48 H8          32.2650     8.5220    20.8640 h1         1 E6J       0.046700
     49 H9          30.4500     7.4190    21.9760 hc         1 E6J       0.054700
     50 H10         29.9000     9.0670    21.7230 hc         1 E6J       0.054700
     51 H11         28.2030     7.1830    21.2510 hc         1 E6J       0.050700
     52 H12         29.1800     6.7070    19.8700 hc         1 E6J       0.050700
     53 H13         28.7480     9.0350    18.8420 h1         1 E6J       0.062200
     54 H14         27.7940     9.4130    20.2750 h1         1 E6J       0.062200
     55 H15         29.0990     7.4760    17.3940 ha         1 E6J       0.127000
     56 H16         26.7690     5.1910    14.5540 ha         1 E6J       0.129000
     57 H17         24.9060     6.7430    18.1090 ha         1 E6J       0.143000
     58 H18         23.5510     5.9240    16.1830 h1         1 E6J       0.033200
     59 H19         24.3400     5.2150    14.7600 h1         1 E6J       0.033200
     60 H20         23.0210     2.2910    16.5910 h1         1 E6J       0.030367
     61 H21         22.1650     3.8430    16.4530 h1         1 E6J       0.030367
     62 H22         22.9600     3.1310    15.0260 h1         1 E6J       0.030367
     63 H23         32.6820     4.5820    15.5550 h1         1 E6J       0.022700
     64 H24         31.0630     4.3140    12.9960 h1         1 E6J       0.054700
     65 H25         30.7200     3.5870    14.5780 h1         1 E6J       0.054700
     66 H26         30.7630     1.2720    13.2700 h1         1 E6J       0.035200
     67 H27         32.2890     0.7990    12.5160 h1         1 E6J       0.035200
     68 H28         33.1570     2.5260    10.6240 ha         1 E6J       0.144000
     69 H29         29.9560     3.6420     7.9360 ha         1 E6J       0.107000
     70 H30         28.2930     2.9270     9.6320 ha         1 E6J       0.108000
     71 H31         29.0420     2.0170    11.8180 ha         1 E6J       0.105000
     72 H32         32.1660     3.9490     7.2250 hc         1 E6J       0.043700
     73 H33         32.9120     5.5950     8.9360 hc         1 E6J       0.035200
     74 H34         34.1680     4.4640     9.4860 hc         1 E6J       0.035200
     75 H35         34.2270     5.1280     7.8400 hc         1 E6J       0.035200
     76 H36         32.9580     1.5900     7.2530 hc         1 E6J       0.035200
     77 H37         34.2530     2.7270     6.8280 hc         1 E6J       0.035200
     78 H38         34.1980     2.0140     8.4540 hc         1 E6J       0.035200
     79 H39         32.4400     7.6740    17.9220 ha         1 E6J       0.109000
     80 H40         30.5750     6.5920    16.4480 hn         1 E6J       0.314500
     81 H41         32.6710     2.2230    14.3580 hn         1 E6J       0.407000
     82 H43         33.6120     4.1090    13.3150 ho         1 E6J       0.437000
@<TRIPOS>BOND
     1     1     2 1   
     2     1    21 1   
     3     1    34 1   
     4     1    41 1   
     5     2     3 1   
     6     2    42 1   
     7     2    43 1   
     8     3     7 ar  
     9     3    33 ar  
    10     4     5 ar  
    11     4    33 ar  
    12     4    36 1   
    13     5     6 ar  
    14     5    44 1   
    15     6     7 ar  
    16     6    45 1   
    17     7    46 1   
    18     8     9 1   
    19     8    36 1   
    20     8    47 1   
    21     8    48 1   
    22     9    10 1   
    23     9    49 1   
    24     9    50 1   
    25    10    11 1   
    26    10    51 1   
    27    10    52 1   
    28    11    37 1   
    29    11    53 1   
    30    11    54 1   
    31    12    13 ar  
    32    12    17 ar  
    33    12    37 1   
    34    13    14 ar  
    35    13    55 1   
    36    14    15 ar  
    37    14    20 1   
    38    15    16 ar  
    39    15    56 1   
    40    16    17 ar  
    41    16    18 1   
    42    17    57 1   
    43    18    38 1   
    44    18    58 1   
    45    18    59 1   
    46    19    38 1   
    47    19    60 1   
    48    19    61 1   
    49    19    62 1   
    50    20    34 1   
    51    20    39 2   
    52    21    22 1   
    53    21    40 1   
    54    21    63 1   
    55    22    35 1   
    56    22    64 1   
    57    22    65 1   
    58    23    24 1   
    59    23    35 1   
    60    23    66 1   
    61    23    67 1   
    62    24    25 ar  
    63    24    29 ar  
    64    25    26 ar  
    65    25    68 1   
    66    26    27 ar  
    67    26    30 1   
    68    27    28 ar  
    69    27    69 1   
    70    28    29 ar  
    71    28    70 1   
    72    29    71 1   
    73    30    31 1   
    74    30    32 1   
    75    30    72 1   
    76    31    73 1   
    77    31    74 1   
    78    31    75 1   
    79    32    76 1   
    80    32    77 1   
    81    32    78 1   
    82    33    79 1   
    83    34    80 1   
    84    35    81 1   
    85    40    82 1   
@<TRIPOS>SUBSTRUCTURE
     1 E6J         1 TEMP              0 ****  ****    0 ROOT
