@<TRIPOS>MOLECULE
E6K
   45    47     1     0     0
SMALL
bcc


@<TRIPOS>ATOM
      1 C1          -7.5020   -60.0030    42.6860 ca         1 E6K       0.243100
      2 C2          -8.3190   -60.8460    43.4760 ca         1 E6K       0.104100
      3 C3          -9.4810   -59.1900    41.5560 ca         1 E6K       0.013000
      4 C4         -10.2820   -59.9950    42.3380 ca         1 E6K      -0.163600
      5 C5          -9.7000   -60.8340    43.3080 ca         1 E6K      -0.175600
      6 C6         -10.5280   -61.7020    44.1530 c          1 E6K       0.612300
      7 C8         -12.7980   -62.4330    44.8080 ca         1 E6K      -0.081000
      8 O1          -6.1860   -59.9950    42.8500 oh         1 E6K      -0.464100
      9 C10        -14.7560   -61.5550    43.7270 ca         1 E6K      -0.113000
     10 C11        -13.9600   -60.7710    42.9070 ca         1 E6K      -0.090000
     11 C12        -12.5760   -60.8090    43.0320 ca         1 E6K      -0.116600
     12 C13        -11.7450   -59.9600    42.1430 c          1 E6K       0.596300
     13 C14         -6.5890   -59.8030    38.6850 c3         1 E6K       0.223800
     14 C16         -6.2070   -62.1760    39.5210 c3         1 E6K      -0.039400
     15 C17         -5.5080   -63.5030    39.2690 c3         1 E6K      -0.211400
     16 C18         -5.9290   -64.2640    37.9920 c          1 E6K       0.924600
     17 O3         -12.2530   -59.2620    41.2900 o          1 E6K      -0.511100
     18 O4         -10.0150   -62.4500    44.9780 o          1 E6K      -0.565100
     19 O7          -6.2520   -57.3170    41.5850 o          1 E6K      -0.628800
     20 O           -8.0210   -57.4560    39.8140 o          1 E6K      -0.628800
     21 N           -6.1400   -59.1640    39.9190 n7         1 E6K      -0.863100
     22 C15         -5.8700   -61.1230    38.4740 c3         1 E6K      -0.077400
     23 O6          -7.0570   -64.0140    37.5160 o          1 E6K      -0.846800
     24 O5          -5.1110   -65.1010    37.5590 o          1 E6K      -0.846800
     25 C           -8.1000   -59.1970    41.7290 ca         1 E6K      -0.274500
     26 C9         -14.1750   -62.3860    44.6770 ca         1 E6K      -0.126000
     27 C7         -11.9920   -61.6450    43.9910 ca         1 E6K      -0.130600
     28 O2          -7.6740   -61.6040    44.3540 oh         1 E6K      -0.526100
     29 H2          -9.9270   -58.5510    40.8080 ha         1 E6K       0.185000
     30 H3         -12.3480   -63.0810    45.5480 ha         1 E6K       0.154000
     31 H           -5.9150   -60.6340    43.5250 ho         1 E6K       0.466000
     32 H5         -15.8320   -61.5170    43.6260 ha         1 E6K       0.135000
     33 H6         -14.4160   -60.1260    42.1680 ha         1 E6K       0.157000
     34 H8          -7.6620   -59.9890    38.7610 h1         1 E6K       0.042200
     35 H9          -6.4370   -59.1390    37.8290 h1         1 E6K       0.042200
     36 H12         -5.9300   -61.8020    40.5110 hc         1 E6K       0.017700
     37 H13         -7.2890   -62.3270    39.5430 hc         1 E6K       0.017700
     38 H15         -4.4230   -63.3540    39.2540 hc         1 E6K       0.017700
     39 H14         -5.6940   -64.1710    40.1190 hc         1 E6K       0.017700
     40 H7          -5.1560   -58.9300    39.9770 hn         1 E6K       0.443800
     41 H10         -6.1500   -61.4920    37.4850 hc         1 E6K       0.055200
     42 H11         -4.7890   -60.9530    38.4440 hc         1 E6K       0.055200
     43 H4         -14.7980   -62.9980    45.3160 ha         1 E6K       0.135000
     44 H1          -8.3380   -62.1470    44.8380 ho         1 E6K       0.486000
     45 S           -7.0990   -58.1220    40.7230 sy         1 E6K       1.332200
@<TRIPOS>BOND
     1     1     2 ar  
     2     1     8 1   
     3     1    25 ar  
     4     2     5 ar  
     5     2    28 1   
     6     3     4 ar  
     7     3    25 ar  
     8     3    29 1   
     9     4     5 ar  
    10     4    12 1   
    11     5     6 1   
    12     6    18 2   
    13     6    27 1   
    14     7    26 ar  
    15     7    27 ar  
    16     7    30 1   
    17     8    31 1   
    18     9    10 ar  
    19     9    26 ar  
    20     9    32 1   
    21    10    11 ar  
    22    10    33 1   
    23    11    12 1   
    24    11    27 ar  
    25    12    17 2   
    26    13    21 1   
    27    13    22 1   
    28    13    34 1   
    29    13    35 1   
    30    14    15 1   
    31    14    22 1   
    32    14    36 1   
    33    14    37 1   
    34    15    16 1   
    35    15    38 1   
    36    15    39 1   
    37    16    23 1   
    38    16    24 1   
    39    19    45 2   
    40    20    45 2   
    41    21    40 1   
    42    21    45 1   
    43    22    41 1   
    44    22    42 1   
    45    25    45 1   
    46    26    43 1   
    47    28    44 1   
@<TRIPOS>SUBSTRUCTURE
     1 E6K         1 TEMP              0 ****  ****    0 ROOT
