@<TRIPOS>MOLECULE
E6K
   45    47     1     0     0
SMALL
No Charge or Current Charge


@<TRIPOS>ATOM
      1 C1          -7.5410   -60.0650    42.9970 ca         1 E6K       0.243100
      2 C2          -8.4560   -60.7970    43.7850 ca         1 E6K       0.104100
      3 C3          -9.3850   -59.1600    41.7060 ca         1 E6K       0.031000
      4 C4         -10.3130   -59.8860    42.4870 ca         1 E6K      -0.163600
      5 C5          -9.8510   -60.7170    43.5430 ca         1 E6K      -0.175600
      6 C6         -10.8380   -61.5000    44.3850 c          1 E6K       0.612300
      7 C8         -13.2540   -62.0930    44.8420 ca         1 E6K      -0.063000
      8 O1          -6.2140   -60.2040    43.2800 oh         1 E6K      -0.503100
      9 C10        -15.0750   -61.1700    43.5270 ca         1 E6K      -0.095000
     10 C11        -14.1500   -60.4500    42.7550 ca         1 E6K      -0.072000
     11 C12        -12.7630   -60.5430    43.0170 ca         1 E6K      -0.116600
     12 C13        -11.7860   -59.7590    42.1730 c          1 E6K       0.596300
     13 C14         -7.0690   -60.4970    39.3760 c3         1 E6K       0.223800
     14 C16         -5.2580   -62.3480    39.1910 c3         1 E6K      -0.039400
     15 C17         -4.4410   -63.2920    38.2700 c3         1 E6K      -0.211400
     16 C18         -5.3350   -64.3580    37.6080 c          1 E6K       0.714000
     17 O3         -12.1770   -59.0410    41.2590 o          1 E6K      -0.511100
     18 O4         -10.4490   -62.2210    45.3010 o          1 E6K      -0.565100
     19 O7          -5.7750   -57.7590    41.7190 o          1 E6K      -0.558000
     20 O           -7.6290   -57.4680    39.9770 o          1 E6K      -0.558000
     21 N           -6.1810   -59.4880    39.9730 n7         1 E6K      -0.918300
     22 C15         -6.2760   -61.4440    38.4490 c3         1 E6K      -0.077400
     23 O6          -5.5570   -65.3880    38.2270 o          1 E6K      -0.741500
     24 O5          -5.8000   -64.1220    36.5040 o          1 E6K      -0.741500
     25 C           -8.0000   -59.2410    41.9560 ca         1 E6K      -0.274500
     26 C9         -14.6270   -61.9910    44.5700 ca         1 E6K      -0.108000
     27 C7         -12.3100   -61.3730    44.0730 ca         1 E6K      -0.130600
     28 O2          -7.9610   -61.5910    44.7910 oh         1 E6K      -0.565100
     29 H2          -9.7470   -58.5270    40.8960 ha         1 E6K       0.167000
     30 H3         -12.9260   -62.7360    45.6570 ha         1 E6K       0.136000
     31 H           -6.1760   -60.8350    44.0340 ho         1 E6K       0.505000
     32 H5         -16.1390   -61.0900    43.3150 ha         1 E6K       0.117000
     33 H6         -14.5180   -59.8180    41.9490 ha         1 E6K       0.139000
     34 H8          -7.5600   -61.1020    40.1500 h1         1 E6K       0.042200
     35 H9          -7.8590   -60.0130    38.7850 h1         1 E6K       0.042200
     36 H12         -4.5520   -61.7140    39.7400 hc         1 E6K       0.017700
     37 H13         -5.7870   -62.9470    39.9420 hc         1 E6K       0.017700
     38 H15         -3.9710   -62.6530    37.5120 hc         1 E6K       0.017700
     39 H14         -3.7190   -63.7760    38.9380 hc         1 E6K       0.017700
     40 H7          -5.7900   -58.9120    39.2310 hn         1 E6K       0.499000
     41 H10         -6.9990   -62.0770    37.9220 hc         1 E6K       0.055200
     42 H11         -5.7580   -60.8540    37.6830 hc         1 E6K       0.055200
     43 H4         -15.3430   -62.5490    45.1700 ha         1 E6K       0.117000
     44 H1          -8.7420   -62.0210    45.2310 ho         1 E6K       0.525000
     45 S           -6.8730   -58.3000    40.9140 sy         1 E6K       1.190600
@<TRIPOS>BOND
     1     1     2 ar  
     2     1     8 1   
     3     1    25 ar  
     4     2     5 ar  
     5     2    28 1   
     6     3     4 ar  
     7     3    25 ar  
     8     3    29 1   
     9     4     5 ar  
    10     4    12 1   
    11     5     6 1   
    12     6    18 2   
    13     6    27 1   
    14     7    26 ar  
    15     7    27 ar  
    16     7    30 1   
    17     8    31 1   
    18     9    10 ar  
    19     9    26 ar  
    20     9    32 1   
    21    10    11 ar  
    22    10    33 1   
    23    11    12 1   
    24    11    27 ar  
    25    12    17 2   
    26    13    21 1   
    27    13    22 1   
    28    13    34 1   
    29    13    35 1   
    30    14    15 1   
    31    14    22 1   
    32    14    36 1   
    33    14    37 1   
    34    15    16 1   
    35    15    38 1   
    36    15    39 1   
    37    16    23 1   
    38    16    24 1   
    39    19    45 2   
    40    20    45 2   
    41    21    40 1   
    42    21    45 1   
    43    22    41 1   
    44    22    42 1   
    45    25    45 1   
    46    26    43 1   
    47    28    44 1   
@<TRIPOS>SUBSTRUCTURE
     1 E6K         1 TEMP              0 ****  ****    0 ROOT
