@<TRIPOS>MOLECULE
E6L
   60    63     1     0     0
SMALL
abcg2


@<TRIPOS>ATOM
      1 C11          0.1320   -28.5260   -26.1850 ca         1 E6L       0.467900
      2 C1          -0.1770   -32.8540   -32.2330 c3         1 E6L       0.146900
      3 C3           0.2030   -32.5960   -29.9100 ca         1 E6L       0.151100
      4 C4           0.0750   -33.1000   -28.6140 ca         1 E6L       0.068000
      5 C5           0.5290   -32.3970   -27.5130 ca         1 E6L      -0.054000
      6 C6           1.1350   -31.1570   -27.6710 ca         1 E6L      -0.131300
      7 C7           1.2630   -30.6480   -28.9570 ca         1 E6L      -0.057000
      8 C8           0.8060   -31.3490   -30.0630 ca         1 E6L      -0.194000
      9 C9           1.6700   -30.4040   -26.4760 c3         1 E6L       0.288100
     10 C13         -1.9590   -28.9390   -25.3610 ca         1 E6L       0.443900
     11 C15         -1.4830   -26.8130   -25.9260 ca         1 E6L       0.205900
     12 C16         -0.2020   -27.1430   -26.3460 ca         1 E6L      -0.402600
     13 C17          0.7410   -26.1700   -26.9170 c          1 E6L       0.654700
     14 C20          1.1750   -23.9370   -27.7300 c3         1 E6L       0.073700
     15 C21          2.2840   -23.5520   -26.7830 ca         1 E6L       0.121300
     16 C23          3.0270   -23.2330   -24.6730 ca         1 E6L       0.113900
     17 C24          4.2510   -22.7960   -25.1500 ca         1 E6L      -0.222000
     18 C25          4.3890   -22.7630   -26.5270 ca         1 E6L       0.113900
     19 C28         -4.1510   -29.4340   -24.3670 c5         1 E6L       0.235800
     20 C29         -4.7640   -30.7570   -23.9220 c5         1 E6L      -0.100400
     21 C30         -3.5500   -31.6020   -23.5470 c5         1 E6L      -0.089400
     22 C31         -2.5120   -31.2180   -24.6020 c5         1 E6L       0.243500
     23 C32         -2.6080   -32.0590   -25.8690 c3         1 E6L       0.146600
     24 N10          1.3440   -29.0010   -26.4900 nu         1 E6L      -0.920100
     25 N12         -0.7600   -29.3920   -25.7190 nb         1 E6L      -0.346000
     26 N14         -2.3670   -27.6580   -25.4360 nb         1 E6L      -0.288000
     27 N19          0.2870   -24.9380   -27.2090 ns         1 E6L      -0.487900
     28 N22          2.0430   -23.6050   -25.4810 nb         1 E6L      -0.171500
     29 N26          3.4150   -23.1410   -27.3440 nb         1 E6L      -0.171500
     30 N27         -2.8410   -29.8240   -24.8750 nh         1 E6L      -0.773300
     31 O18          1.9210   -26.4540   -27.1460 o          1 E6L      -0.657100
     32 O33         -2.1840   -33.3650   -25.5460 oh         1 E6L      -0.673000
     33 CL1         -0.6960   -34.6380   -28.3990 cl         1 E6L      -0.198000
     34 H1          -0.6200   -33.6110   -32.8750 h1         1 E6L       0.044033
     35 H2          -0.7290   -31.9190   -32.3540 h1         1 E6L       0.044033
     36 H3           0.8610   -32.6980   -32.5380 h1         1 E6L       0.044033
     37 H4           0.3900   -32.8110   -26.5220 ha         1 E6L       0.139000
     38 H5           1.7230   -29.6800   -29.1150 ha         1 E6L       0.121000
     39 H6           0.9300   -30.9130   -31.0450 ha         1 E6L       0.121000
     40 H7           1.3070   -30.8660   -25.5570 h1         1 E6L       0.063700
     41 H8           2.7590   -30.4740   -26.4580 h1         1 E6L       0.063700
     42 H9          -1.8280   -25.7840   -25.9730 h4         1 E6L       0.006100
     43 H10          1.6200   -24.2490   -28.6770 h1         1 E6L       0.069200
     44 H11          0.5770   -23.0490   -27.9420 h1         1 E6L       0.069200
     45 H12          2.8300   -23.2810   -23.6080 h4         1 E6L       0.024100
     46 H13          5.0490   -22.4950   -24.4880 ha         1 E6L       0.134000
     47 H14          5.3110   -22.4260   -26.9870 h4         1 E6L       0.024100
     48 H15         -4.0470   -28.7410   -23.5280 h1         1 E6L       0.057200
     49 H16         -4.7410   -28.9330   -25.1340 h1         1 E6L       0.057200
     50 H17         -5.4640   -30.6250   -23.0980 hc         1 E6L       0.053700
     51 H18         -5.3130   -31.2190   -24.7450 hc         1 E6L       0.053700
     52 H19         -3.7550   -32.6720   -23.5350 hc         1 E6L       0.062200
     53 H20         -3.1890   -31.3230   -22.5540 hc         1 E6L       0.062200
     54 H21         -1.4910   -31.2910   -24.2200 h1         1 E6L       0.085700
     55 H22         -1.9750   -31.6080   -26.6400 h1         1 E6L       0.034200
     56 H23         -3.6420   -32.0490   -26.2430 h1         1 E6L       0.034200
     57 H24          2.0120   -28.3260   -26.8350 hn         1 E6L       0.542000
     58 H25         -0.6710   -24.6800   -27.0530 hn         1 E6L       0.322500
     59 H26         -2.1470   -33.8820   -26.3560 ho         1 E6L       0.453000
     60 O2          -0.2690   -33.3520   -30.9100 os         1 E6L      -0.325100
@<TRIPOS>BOND
     1     1    12 ar  
     2     1    24 1   
     3     1    25 ar  
     4     2    34 1   
     5     2    35 1   
     6     2    36 1   
     7     2    60 1   
     8     3     4 ar  
     9     3     8 ar  
    10     3    60 1   
    11     4     5 ar  
    12     4    33 1   
    13     5     6 ar  
    14     5    37 1   
    15     6     7 ar  
    16     6     9 1   
    17     7     8 ar  
    18     7    38 1   
    19     8    39 1   
    20     9    24 1   
    21     9    40 1   
    22     9    41 1   
    23    10    25 ar  
    24    10    26 ar  
    25    10    30 1   
    26    11    12 ar  
    27    11    26 ar  
    28    11    42 1   
    29    12    13 1   
    30    13    27 1   
    31    13    31 2   
    32    14    15 1   
    33    14    27 1   
    34    14    43 1   
    35    14    44 1   
    36    15    28 ar  
    37    15    29 ar  
    38    16    17 ar  
    39    16    28 ar  
    40    16    45 1   
    41    17    18 ar  
    42    17    46 1   
    43    18    29 ar  
    44    18    47 1   
    45    19    20 1   
    46    19    30 1   
    47    19    48 1   
    48    19    49 1   
    49    20    21 1   
    50    20    50 1   
    51    20    51 1   
    52    21    22 1   
    53    21    52 1   
    54    21    53 1   
    55    22    23 1   
    56    22    30 1   
    57    22    54 1   
    58    23    32 1   
    59    23    55 1   
    60    23    56 1   
    61    24    57 1   
    62    27    58 1   
    63    32    59 1   
@<TRIPOS>SUBSTRUCTURE
     1 E6L         1 TEMP              0 ****  ****    0 ROOT
