@<TRIPOS>MOLECULE
E6L
   60    63     1     0     0
SMALL
No Charge or Current Charge


@<TRIPOS>ATOM
      1 C11          0.3580   -28.7920   -26.0740 ca         1 E6L       0.467900
      2 C1          -0.5240   -32.2930   -32.4440 c3         1 E6L       0.146900
      3 C3          -0.0030   -32.3340   -30.0270 ca         1 E6L       0.151100
      4 C4          -0.1820   -32.9540   -28.7720 ca         1 E6L       0.068000
      5 C5           0.4570   -32.4440   -27.6290 ca         1 E6L      -0.054000
      6 C6           1.2770   -31.3030   -27.7200 ca         1 E6L      -0.131300
      7 C7           1.4630   -30.6860   -28.9730 ca         1 E6L      -0.057000
      8 C8           0.8290   -31.1950   -30.1200 ca         1 E6L      -0.194000
      9 C9           1.9530   -30.7460   -26.4700 c3         1 E6L       0.288100
     10 C13         -1.7740   -29.0800   -25.3070 ca         1 E6L       0.443900
     11 C15         -1.2350   -27.0230   -26.1560 ca         1 E6L       0.205900
     12 C16          0.0740   -27.4640   -26.4270 ca         1 E6L      -0.402600
     13 C17          1.0860   -26.5540   -27.0590 c          1 E6L       0.654700
     14 C20          1.5080   -24.2210   -27.9130 c3         1 E6L       0.073700
     15 C21          2.3200   -23.4710   -26.8630 ca         1 E6L       0.121300
     16 C23          2.3580   -21.9630   -25.1260 ca         1 E6L       0.113900
     17 C24          3.7450   -22.1480   -25.0040 ca         1 E6L      -0.222000
     18 C25          4.3610   -23.0490   -25.8900 ca         1 E6L       0.113900
     19 C28         -4.0660   -29.4310   -24.2290 c5         1 E6L       0.235800
     20 C29         -4.7870   -30.7490   -23.8470 c5         1 E6L      -0.100400
     21 C30         -3.6050   -31.6050   -23.3240 c5         1 E6L      -0.089400
     22 C31         -2.5240   -31.3690   -24.4180 c5         1 E6L       0.243500
     23 C32         -2.6700   -32.2670   -25.6890 c3         1 E6L       0.146600
     24 N10          1.6120   -29.3310   -26.2750 nu         1 E6L      -0.920100
     25 N12         -0.5560   -29.6000   -25.5210 nb         1 E6L      -0.346000
     26 N14         -2.1550   -27.8240   -25.5960 nb         1 E6L      -0.288000
     27 N19          0.6660   -25.2750   -27.3290 ns         1 E6L      -0.487900
     28 N22          1.6390   -22.6230   -26.0570 nb         1 E6L      -0.171500
     29 N26          3.6500   -23.7130   -26.8230 nb         1 E6L      -0.171500
     30 N27         -2.7430   -29.9200   -24.7140 nh         1 E6L      -0.773300
     31 O18          2.2240   -26.9160   -27.3290 o          1 E6L      -0.657100
     32 O33         -2.4180   -33.6540   -25.3910 oh         1 E6L      -0.673000
     33 Cl1         -1.2140   -34.3780   -28.6070 cl         1 E6L      -0.198000
     34 H1          -1.1180   -32.8680   -33.1660 h1         1 E6L       0.044033
     35 H2          -0.8850   -31.2570   -32.4560 h1         1 E6L       0.044033
     36 H3           0.5210   -32.3070   -32.7780 h1         1 E6L       0.044033
     37 H4           0.3080   -32.9350   -26.6710 ha         1 E6L       0.139000
     38 H5           2.0980   -29.8060   -29.0590 ha         1 E6L       0.121000
     39 H6           0.9930   -30.6920   -31.0680 ha         1 E6L       0.121000
     40 H7           1.6530   -31.3320   -25.5890 h1         1 E6L       0.063700
     41 H8           3.0410   -30.8580   -26.5780 h1         1 E6L       0.063700
     42 H9          -1.5700   -26.0140   -26.3850 h4         1 E6L       0.006100
     43 H10          2.1810   -24.6660   -28.6590 h1         1 E6L       0.069200
     44 H11          0.8610   -23.5090   -28.4420 h1         1 E6L       0.069200
     45 H12          1.8150   -21.2800   -24.4740 h4         1 E6L       0.024100
     46 H13          4.3210   -21.6140   -24.2530 ha         1 E6L       0.134000
     47 H14          5.4320   -23.2410   -25.8530 h4         1 E6L       0.024100
     48 H15         -3.9440   -28.7780   -23.3530 h1         1 E6L       0.057200
     49 H16         -4.6250   -28.8800   -24.9980 h1         1 E6L       0.057200
     50 H17         -5.5640   -30.5910   -23.0910 hc         1 E6L       0.053700
     51 H18         -5.2680   -31.2080   -24.7180 hc         1 E6L       0.053700
     52 H19         -3.8650   -32.6620   -23.2040 hc         1 E6L       0.062200
     53 H20         -3.2570   -31.2450   -22.3480 hc         1 E6L       0.062200
     54 H21         -1.5250   -31.5500   -23.9940 h1         1 E6L       0.085700
     55 H22         -1.9610   -31.9120   -26.4470 h1         1 E6L       0.034200
     56 H23         -3.6770   -32.1450   -26.1080 h1         1 E6L       0.034200
     57 H24          2.2360   -28.6440   -26.7160 hn         1 E6L       0.542000
     58 H25         -0.2850   -25.0450   -27.0750 hn         1 E6L       0.322500
     59 H26         -2.4660   -34.1420   -26.2440 ho         1 E6L       0.453000
     60 O2          -0.6490   -32.8640   -31.1300 os         1 E6L      -0.325100
@<TRIPOS>BOND
     1     1    12 ar  
     2     1    24 1   
     3     1    25 ar  
     4     2    34 1   
     5     2    35 1   
     6     2    36 1   
     7     2    60 1   
     8     3     4 ar  
     9     3     8 ar  
    10     3    60 1   
    11     4     5 ar  
    12     4    33 1   
    13     5     6 ar  
    14     5    37 1   
    15     6     7 ar  
    16     6     9 1   
    17     7     8 ar  
    18     7    38 1   
    19     8    39 1   
    20     9    24 1   
    21     9    40 1   
    22     9    41 1   
    23    10    25 ar  
    24    10    26 ar  
    25    10    30 1   
    26    11    12 ar  
    27    11    26 ar  
    28    11    42 1   
    29    12    13 1   
    30    13    27 1   
    31    13    31 2   
    32    14    15 1   
    33    14    27 1   
    34    14    43 1   
    35    14    44 1   
    36    15    28 ar  
    37    15    29 ar  
    38    16    17 ar  
    39    16    28 ar  
    40    16    45 1   
    41    17    18 ar  
    42    17    46 1   
    43    18    29 ar  
    44    18    47 1   
    45    19    20 1   
    46    19    30 1   
    47    19    48 1   
    48    19    49 1   
    49    20    21 1   
    50    20    50 1   
    51    20    51 1   
    52    21    22 1   
    53    21    52 1   
    54    21    53 1   
    55    22    23 1   
    56    22    30 1   
    57    22    54 1   
    58    23    32 1   
    59    23    55 1   
    60    23    56 1   
    61    24    57 1   
    62    27    58 1   
    63    32    59 1   
@<TRIPOS>SUBSTRUCTURE
     1 E6L         1 TEMP              0 ****  ****    0 ROOT
