@<TRIPOS>MOLECULE
E6M
   87    89     1     0     0
SMALL
No Charge or Current Charge


@<TRIPOS>ATOM
      1 C3          31.9470     5.8620    14.9680 c3         1 E6M       0.075700
      2 C5          32.8360     6.8470    15.7820 c3         1 E6M      -0.093400
      3 C8          32.1990     8.2390    16.0910 c3         1 E6M      -0.055700
      4 C10         33.0920     9.0380    17.0850 c3         1 E6M      -0.072400
      5 C13         32.5460    10.4190    17.5440 c3         1 E6M      -0.070400
      6 C16         31.1580    10.4110    18.2350 c3         1 E6M      -0.076400
      7 C19         31.1200     9.6730    19.5970 c3         1 E6M      -0.075400
      8 C22         29.7760     9.8300    20.3540 c3         1 E6M      -0.071400
      9 C25         28.5960     8.9990    19.7910 c3         1 E6M      -0.112400
     10 C28         28.6570     7.5030    20.1700 c3         1 E6M       0.216800
     11 C33         27.3380     6.5050    18.2150 ca         1 E6M       0.321000
     12 C34         28.4330     6.3140    17.3580 ca         1 E6M      -0.174000
     13 C36         28.2440     6.0650    15.9760 ca         1 E6M      -0.111600
     14 C37         26.9240     6.0150    15.4770 ca         1 E6M      -0.093000
     15 C39         25.8190     6.1900    16.3330 ca         1 E6M      -0.089300
     16 C40         26.0350     6.4330    17.7030 ca         1 E6M      -0.168000
     17 C42         24.3990     6.1200    15.7730 c3         1 E6M       0.199900
     18 C46         24.0190     3.7940    16.3840 c3         1 E6M       0.139900
     19 C50         29.4160     5.8900    15.0320 c          1 E6M       0.613700
     20 C52         31.8960     9.0330    14.7940 c3         1 E6M      -0.094100
     21 C56         32.6140     4.4710    14.7470 c3         1 E6M       0.167300
     22 C60         31.7260     3.4720    13.9550 c3         1 E6M       0.156800
     23 C65         31.8630     1.4330    12.4960 c3         1 E6M       0.216100
     24 C68         31.4040     2.1560    11.2340 ca         1 E6M      -0.089300
     25 C69         32.3490     2.7460    10.3730 ca         1 E6M      -0.082000
     26 C71         31.9400     3.4290     9.2080 ca         1 E6M      -0.078300
     27 C72         30.5650     3.5110     8.9100 ca         1 E6M      -0.110000
     28 C74         29.6170     2.9220     9.7630 ca         1 E6M      -0.114000
     29 C76         30.0340     2.2480    10.9220 ca         1 E6M      -0.116000
     30 C78         32.9680     4.0800     8.2790 c3         1 E6M      -0.013400
     31 C80         33.7410     5.2080     8.9970 c3         1 E6M      -0.086600
     32 C84         33.9240     3.0330     7.6660 c3         1 E6M      -0.086600
     33 N1          30.6450     5.7370    15.6360 ns         1 E6M      -0.507900
     34 N31         27.5280     6.7620    19.5750 nu         1 E6M      -0.965200
     35 N63         32.5550     2.3480    13.4270 n7         1 E6M      -0.866400
     36 O45         24.1100     4.7770    15.3350 os         1 E6M      -0.443000
     37 O51         29.2950     5.9170    13.8160 o          1 E6M      -0.595100
     38 O58         33.8390     4.5900    14.0170 oh         1 E6M      -0.643000
     39 H1          31.7870     6.2980    13.9730 h1         1 E6M       0.097700
     40 H2          33.0980     6.3630    16.7310 hc         1 E6M       0.042700
     41 H3          33.7810     7.0050    15.2480 hc         1 E6M       0.042700
     42 H4          31.2440     8.0630    16.5990 hc         1 E6M       0.046700
     43 H5          33.2710     8.4240    17.9760 hc         1 E6M       0.035200
     44 H6          34.0750     9.1960    16.6250 hc         1 E6M       0.035200
     45 H7          33.2750    10.8650    18.2320 hc         1 E6M       0.039700
     46 H8          32.5070    11.0950    16.6820 hc         1 E6M       0.039700
     47 H9          30.8620    11.4550    18.3990 hc         1 E6M       0.040200
     48 H10         30.4080     9.9890    17.5560 hc         1 E6M       0.040200
     49 H11         31.3430     8.6090    19.4520 hc         1 E6M       0.037200
     50 H12         31.9190    10.0760    20.2310 hc         1 E6M       0.037200
     51 H13         29.9270     9.5580    21.4070 hc         1 E6M       0.040200
     52 H14         29.4950    10.8910    20.3550 hc         1 E6M       0.040200
     53 H15         28.5530     9.1080    18.7010 hc         1 E6M       0.047700
     54 H16         27.6600     9.4160    20.1820 hc         1 E6M       0.047700
     55 H17         28.6130     7.4190    21.2650 h1         1 E6M       0.049700
     56 H18         29.6150     7.0710    19.8520 h1         1 E6M       0.049700
     57 H19         29.4320     6.3770    17.7740 ha         1 E6M       0.115000
     58 H20         26.7510     5.8300    14.4180 ha         1 E6M       0.144000
     59 H21         25.1880     6.5740    18.3680 ha         1 E6M       0.109000
     60 H22         24.3200     6.8150    14.9270 h1         1 E6M       0.051700
     61 H23         23.6750     6.4460    16.5320 h1         1 E6M       0.051700
     62 H24         23.7520     2.8160    15.9660 h1         1 E6M       0.030700
     63 H25         24.9770     3.6870    16.9100 h1         1 E6M       0.030700
     64 H26         23.2500     4.0740    17.1160 h1         1 E6M       0.030700
     65 H27         31.3810     9.9740    15.0160 hc         1 E6M       0.039700
     66 H28         32.8210     9.2650    14.2530 hc         1 E6M       0.039700
     67 H29         31.2390     8.4660    14.1250 hc         1 E6M       0.039700
     68 H30         32.8230     4.0250    15.7290 h1         1 E6M       0.022700
     69 H31         31.2550     4.0200    13.1270 h1         1 E6M       0.055200
     70 H32         30.9200     3.1020    14.6030 h1         1 E6M       0.055200
     71 H33         30.9990     0.9700    12.9920 h1         1 E6M       0.035700
     72 H34         32.5400     0.6180    12.2030 h1         1 E6M       0.035700
     73 H35         33.4060     2.6770    10.6200 ha         1 E6M       0.142000
     74 H36         30.2280     4.0330     8.0170 ha         1 E6M       0.107000
     75 H37         28.5580     2.9920     9.5270 ha         1 E6M       0.108000
     76 H38         29.2910     1.8000    11.5790 ha         1 E6M       0.105000
     77 H39         32.4380     4.5490     7.4400 hc         1 E6M       0.043700
     78 H40         33.0450     5.9520     9.4040 hc         1 E6M       0.035367
     79 H41         34.3430     4.8130     9.8240 hc         1 E6M       0.035367
     80 H42         34.4150     5.7200     8.2990 hc         1 E6M       0.035367
     81 H43         33.3550     2.2540     7.1440 hc         1 E6M       0.035367
     82 H44         34.5990     3.5030     6.9410 hc         1 E6M       0.035367
     83 H45         34.5350     2.5520     8.4390 hc         1 E6M       0.035367
     84 H46         30.6390     5.6880    16.6460 hn         1 E6M       0.310500
     85 H47         26.6670     6.7640    20.1230 hn         1 E6M       0.474000
     86 H48         32.8760     1.7870    14.2280 hn         1 E6M       0.408000
     87 H50         33.8210     3.7680    13.4660 ho         1 E6M       0.438000
@<TRIPOS>BOND
     1     1     2 1   
     2     1    21 1   
     3     1    33 1   
     4     1    39 1   
     5     2     3 1   
     6     2    40 1   
     7     2    41 1   
     8     3     4 1   
     9     3    20 1   
    10     3    42 1   
    11     4     5 1   
    12     4    43 1   
    13     4    44 1   
    14     5     6 1   
    15     5    45 1   
    16     5    46 1   
    17     6     7 1   
    18     6    47 1   
    19     6    48 1   
    20     7     8 1   
    21     7    49 1   
    22     7    50 1   
    23     8     9 1   
    24     8    51 1   
    25     8    52 1   
    26     9    10 1   
    27     9    53 1   
    28     9    54 1   
    29    10    34 1   
    30    10    55 1   
    31    10    56 1   
    32    11    12 ar  
    33    11    16 ar  
    34    11    34 1   
    35    12    13 ar  
    36    12    57 1   
    37    13    14 ar  
    38    13    19 1   
    39    14    15 ar  
    40    14    58 1   
    41    15    16 ar  
    42    15    17 1   
    43    16    59 1   
    44    17    36 1   
    45    17    60 1   
    46    17    61 1   
    47    18    36 1   
    48    18    62 1   
    49    18    63 1   
    50    18    64 1   
    51    19    33 1   
    52    19    37 2   
    53    20    65 1   
    54    20    66 1   
    55    20    67 1   
    56    21    22 1   
    57    21    38 1   
    58    21    68 1   
    59    22    35 1   
    60    22    69 1   
    61    22    70 1   
    62    23    24 1   
    63    23    35 1   
    64    23    71 1   
    65    23    72 1   
    66    24    25 ar  
    67    24    29 ar  
    68    25    26 ar  
    69    25    73 1   
    70    26    27 ar  
    71    26    30 1   
    72    27    28 ar  
    73    27    74 1   
    74    28    29 ar  
    75    28    75 1   
    76    29    76 1   
    77    30    31 1   
    78    30    32 1   
    79    30    77 1   
    80    31    78 1   
    81    31    79 1   
    82    31    80 1   
    83    32    81 1   
    84    32    82 1   
    85    32    83 1   
    86    33    84 1   
    87    34    85 1   
    88    35    86 1   
    89    38    87 1   
@<TRIPOS>SUBSTRUCTURE
     1 E6M         1 TEMP              0 ****  ****    0 ROOT
