@<TRIPOS>MOLECULE
E6M
   87    89     1     0     0
SMALL
bcc


@<TRIPOS>ATOM
      1 C3          31.1140     6.1690    14.4590 c3         1 E6M       0.075700
      2 C5          32.2030     6.9970    15.1480 c3         1 E6M      -0.093400
      3 C8          31.7440     8.3600    15.6680 c3         1 E6M      -0.055700
      4 C10         32.9040     9.0380    16.4020 c3         1 E6M      -0.072400
      5 C13         32.5640    10.3680    17.0730 c3         1 E6M      -0.070400
      6 C16         31.4270    10.3160    18.0920 c3         1 E6M      -0.076400
      7 C19         31.6830     9.3670    19.2620 c3         1 E6M      -0.075400
      8 C22         30.6700     9.5230    20.3970 c3         1 E6M      -0.071400
      9 C25         29.2860     8.9410    20.1090 c3         1 E6M      -0.112400
     10 C28         29.2480     7.4240    20.3020 c3         1 E6M       0.216800
     11 C33         27.5130     6.5850    18.7410 ca         1 E6M       0.182600
     12 C34         28.3400     6.6540    17.6150 ca         1 E6M      -0.192000
     13 C36         27.8410     6.3560    16.3490 ca         1 E6M      -0.111600
     14 C37         26.5080     6.0210    16.1690 ca         1 E6M      -0.111000
     15 C39         25.6710     5.9440    17.2820 ca         1 E6M      -0.089300
     16 C40         26.1710     6.2150    18.5430 ca         1 E6M      -0.186000
     17 C42         24.2150     5.5820    17.1110 c3         1 E6M       0.176700
     18 C46         24.4770     3.2770    16.7530 c3         1 E6M       0.116700
     19 C50         28.7360     6.4310    15.1510 c          1 E6M       0.680700
     20 C52         31.1980     9.2370    14.5450 c3         1 E6M      -0.094100
     21 C56         31.6160     4.7730    14.0310 c3         1 E6M       0.144100
     22 C60         30.6450     4.1210    13.0590 c3         1 E6M       0.156800
     23 C65         30.2300     2.0940    11.7940 c3         1 E6M       0.216100
     24 C68         30.8730     2.4110    10.4630 ca         1 E6M      -0.089300
     25 C69         32.1710     2.9000    10.3790 ca         1 E6M      -0.100000
     26 C71         32.7710     3.1750     9.1500 ca         1 E6M      -0.078300
     27 C72         32.0470     2.9340     7.9870 ca         1 E6M      -0.128000
     28 C74         30.7490     2.4390     8.0550 ca         1 E6M      -0.132000
     29 C76         30.1620     2.1870     9.2840 ca         1 E6M      -0.134000
     30 C78         34.1740     3.7350     9.0940 c3         1 E6M      -0.013400
     31 C80         34.2510     5.1000     9.7790 c3         1 E6M      -0.086600
     32 C84         35.1860     2.7640     9.7030 c3         1 E6M      -0.086600
     33 N1          29.9930     6.0060    15.3630 ns         1 E6M      -0.574900
     34 N31         27.9750     6.8110    20.0060 nu         1 E6M      -0.771600
     35 N63         30.9100     2.7040    12.9140 n7         1 E6M      -0.811200
     36 O45         24.0050     4.5010    16.2410 os         1 E6M      -0.396600
     37 O51         28.3280     6.8450    14.0740 o          1 E6M      -0.595100
     38 O58         32.8730     4.8300    13.3990 oh         1 E6M      -0.580800
     39 H1          30.7530     6.7020    13.5770 h1         1 E6M       0.097700
     40 H2          32.6150     6.4180    15.9840 hc         1 E6M       0.042700
     41 H3          33.0220     7.1570    14.4430 hc         1 E6M       0.042700
     42 H4          30.9400     8.1990    16.3960 hc         1 E6M       0.046700
     43 H5          33.2970     8.3470    17.1550 hc         1 E6M       0.035200
     44 H6          33.7240     9.2000    15.6930 hc         1 E6M       0.035200
     45 H7          33.4650    10.7370    17.5740 hc         1 E6M       0.039700
     46 H8          32.3260    11.1170    16.3130 hc         1 E6M       0.039700
     47 H9          31.2780    11.3240    18.4910 hc         1 E6M       0.040200
     48 H10         30.4870    10.0540    17.5970 hc         1 E6M       0.040200
     49 H11         31.6980     8.3300    18.9100 hc         1 E6M       0.037200
     50 H12         32.6870     9.5600    19.6540 hc         1 E6M       0.037200
     51 H13         31.0650     9.0530    21.3040 hc         1 E6M       0.040200
     52 H14         30.5760    10.5870    20.6330 hc         1 E6M       0.040200
     53 H15         28.9610     9.2020    19.0960 hc         1 E6M       0.047700
     54 H16         28.5510     9.3860    20.7850 hc         1 E6M       0.047700
     55 H17         29.4830     7.1950    21.3430 h1         1 E6M       0.049700
     56 H18         30.0290     6.9380    19.7120 h1         1 E6M       0.049700
     57 H19         29.3720     6.9620    17.7260 ha         1 E6M       0.133000
     58 H20         26.1300     5.8010    15.1790 ha         1 E6M       0.162000
     59 H21         25.5140     6.1390    19.4040 ha         1 E6M       0.127000
     60 H22         23.6790     6.4310    16.6780 h1         1 E6M       0.051700
     61 H23         23.7680     5.3880    18.0970 h1         1 E6M       0.051700
     62 H24         24.2060     2.4950    16.0450 h1         1 E6M       0.030700
     63 H25         25.5650     3.2660    16.8780 h1         1 E6M       0.030700
     64 H26         24.0220     3.0400    17.7220 h1         1 E6M       0.030700
     65 H27         30.9220    10.2270    14.9090 hc         1 E6M       0.039700
     66 H28         31.9470     9.3700    13.7590 hc         1 E6M       0.039700
     67 H29         30.3070     8.8110    14.0830 hc         1 E6M       0.039700
     68 H30         31.6730     4.1570    14.9430 h1         1 E6M       0.022700
     69 H31         30.7730     4.6040    12.0860 h1         1 E6M       0.055200
     70 H32         29.6110     4.3240    13.3700 h1         1 E6M       0.055200
     71 H33         29.1620     2.3610    11.7370 h1         1 E6M       0.035700
     72 H34         30.2550     1.0100    11.9390 h1         1 E6M       0.035700
     73 H35         32.7080     3.0900    11.3000 ha         1 E6M       0.160000
     74 H36         32.4950     3.1400     7.0220 ha         1 E6M       0.125000
     75 H37         30.1930     2.2590     7.1430 ha         1 E6M       0.126000
     76 H38         29.1440     1.8150     9.3310 ha         1 E6M       0.123000
     77 H39         34.4340     3.8720     8.0400 hc         1 E6M       0.043700
     78 H40         33.5730     5.8160     9.3130 hc         1 E6M       0.035367
     79 H41         33.9830     5.0270    10.8350 hc         1 E6M       0.035367
     80 H42         35.2620     5.5060     9.7150 hc         1 E6M       0.035367
     81 H43         35.1450     1.7880     9.2160 hc         1 E6M       0.035367
     82 H44         36.2020     3.1480     9.5960 hc         1 E6M       0.035367
     83 H45         35.0000     2.6140    10.7680 hc         1 E6M       0.035367
     84 H46         30.2050     5.5980    16.2610 hn         1 E6M       0.310500
     85 H47         27.2690     6.9170    20.7160 hn         1 E6M       0.418800
     86 H48         30.6430     2.2230    13.7630 hn         1 E6M       0.352800
     87 H50         33.5500     4.9900    14.0620 ho         1 E6M       0.399000
@<TRIPOS>BOND
     1     1     2 1   
     2     1    21 1   
     3     1    33 1   
     4     1    39 1   
     5     2     3 1   
     6     2    40 1   
     7     2    41 1   
     8     3     4 1   
     9     3    20 1   
    10     3    42 1   
    11     4     5 1   
    12     4    43 1   
    13     4    44 1   
    14     5     6 1   
    15     5    45 1   
    16     5    46 1   
    17     6     7 1   
    18     6    47 1   
    19     6    48 1   
    20     7     8 1   
    21     7    49 1   
    22     7    50 1   
    23     8     9 1   
    24     8    51 1   
    25     8    52 1   
    26     9    10 1   
    27     9    53 1   
    28     9    54 1   
    29    10    34 1   
    30    10    55 1   
    31    10    56 1   
    32    11    12 ar  
    33    11    16 ar  
    34    11    34 1   
    35    12    13 ar  
    36    12    57 1   
    37    13    14 ar  
    38    13    19 1   
    39    14    15 ar  
    40    14    58 1   
    41    15    16 ar  
    42    15    17 1   
    43    16    59 1   
    44    17    36 1   
    45    17    60 1   
    46    17    61 1   
    47    18    36 1   
    48    18    62 1   
    49    18    63 1   
    50    18    64 1   
    51    19    33 1   
    52    19    37 2   
    53    20    65 1   
    54    20    66 1   
    55    20    67 1   
    56    21    22 1   
    57    21    38 1   
    58    21    68 1   
    59    22    35 1   
    60    22    69 1   
    61    22    70 1   
    62    23    24 1   
    63    23    35 1   
    64    23    71 1   
    65    23    72 1   
    66    24    25 ar  
    67    24    29 ar  
    68    25    26 ar  
    69    25    73 1   
    70    26    27 ar  
    71    26    30 1   
    72    27    28 ar  
    73    27    74 1   
    74    28    29 ar  
    75    28    75 1   
    76    29    76 1   
    77    30    31 1   
    78    30    32 1   
    79    30    77 1   
    80    31    78 1   
    81    31    79 1   
    82    31    80 1   
    83    32    81 1   
    84    32    82 1   
    85    32    83 1   
    86    33    84 1   
    87    34    85 1   
    88    35    86 1   
    89    38    87 1   
@<TRIPOS>SUBSTRUCTURE
     1 E6M         1 TEMP              0 ****  ****    0 ROOT
