@<TRIPOS>MOLECULE
E6N
   84    90     1     0     0
SMALL
No Charge or Current Charge


@<TRIPOS>ATOM
      1 C5          -1.4230     5.6770    -0.5890 ca         1 E6N      -0.153000
      2 C7          -0.6180     3.5900     0.3950 ca         1 E6N      -0.128300
      3 C8           0.3420     2.3990     0.4270 c3         1 E6N       0.217900
      4 C10          2.3040     0.3210    -0.0100 ca         1 E6N      -0.144000
      5 C13          0.2270    -3.1300     1.4020 c6         1 E6N       0.137700
      6 C15         -1.9580    -1.7730     1.5810 c6         1 E6N       0.198300
      7 C17         -1.3350    -0.2240    -1.7160 cc         1 E6N      -0.170000
      8 C20         -3.9420     3.3390    -1.5700 cc         1 E6N       0.065600
      9 C24          2.4210    -4.3980     1.6930 c          1 E6N       0.558000
     10 C26          4.7860    -5.4860     1.2350 c6         1 E6N      -0.059400
     11 C28          6.6480    -3.9560     0.3280 c6         1 E6N      -0.078400
     12 O1          -1.6690     2.6980     2.3580 os         1 E6N      -0.356100
     13 N2           1.6860    -3.1810     1.7080 n          1 E6N      -0.179800
     14 C3          -2.5080     4.7810     1.3920 ca         1 E6N      -0.186000
     15 N6          -3.2850     1.4390    -0.8310 na         1 E6N       0.318900
     16 C9           2.0430     1.3000    -0.9930 ca         1 E6N       0.116100
     17 C11          3.1930    -0.7550    -0.2520 ca         1 E6N      -0.123900
     18 C12          3.3270    -1.8520     0.7800 ce         1 E6N       0.413900
     19 C14         -0.4920    -1.9000     2.0480 c6         1 E6N      -0.123900
     20 C16         -2.1870    -0.5070    -0.5790 cc         1 E6N       0.576900
     21 C19         -2.5340     1.7720    -1.9310 cd         1 E6N      -0.115000
     22 C23          0.0410    -3.0950    -0.1420 c6         1 E6N      -0.123900
     23 C27          6.3020    -5.1530     1.2540 c6         1 E6N      -0.078400
     24 C29          5.7820    -2.7060     0.6450 c6         1 E6N      -0.066400
     25 C30          4.2720    -3.0610     0.5590 c6         1 E6N      -0.122000
     26 C31          3.8200    -0.8260    -1.5160 ca         1 E6N      -0.091000
     27 C32          3.5860     0.1560    -2.4940 ca         1 E6N      -0.180000
     28 C1          -2.6240     2.7190     3.4330 c3         1 E6N       0.145900
     29 C2          -1.6110     3.6880     1.3930 ca         1 E6N       0.137100
     30 C4          -2.4130     5.7710     0.4000 ca         1 E6N      -0.077000
     31 C6          -0.5280     4.5950    -0.5940 ca         1 E6N      -0.049000
     32 O2           1.1420     2.3300    -0.7690 os         1 E6N      -0.327100
     33 N1           2.3790    -1.9800     1.6570 n2         1 E6N      -0.464300
     34 N3          -1.9870    -1.7030     0.0960 nh         1 E6N      -0.736300
     35 C18         -1.4950     0.9410    -2.4230 cd         1 E6N      -0.014000
     36 N4          -2.9220     2.9370    -2.4060 nc         1 E6N      -0.269600
     37 C21         -4.2110     2.4210    -0.5680 cd         1 E6N      -0.269200
     38 N5          -5.2030     2.5270     0.4730 no         1 E6N       0.731100
     39 O3          -5.8620     3.5730     0.5140 o          1 E6N      -0.402500
     40 N7          -3.1570     0.2750    -0.1010 nd         1 E6N      -0.537800
     41 C22         -1.4400    -2.9260    -0.5440 c6         1 E6N       0.198300
     42 C25          3.9570    -4.2190     1.5760 c6         1 E6N      -0.148700
     43 C33          2.6940     1.2220    -2.2430 ca         1 E6N       0.124100
     44 O6           2.4230     2.1910    -3.1970 os         1 E6N      -0.316100
     45 C34          3.0270     2.1800    -4.5010 c3         1 E6N       0.144900
     46 H1          -1.3490     6.4450    -1.3570 ha         1 E6N       0.116000
     47 H2           0.9860     2.4950     1.3100 h1         1 E6N       0.046200
     48 H3          -0.2460     1.4780     0.5340 h1         1 E6N       0.046200
     49 H4           1.8090     0.3810     0.9530 ha         1 E6N       0.136000
     50 H5          -0.2490    -4.0420     1.7900 h1         1 E6N       0.080700
     51 H6          -2.5350    -2.6420     1.9340 h1         1 E6N       0.070200
     52 H7          -2.4070    -0.8810     2.0440 h1         1 E6N       0.070200
     53 H9          -4.4350     4.2920    -1.7470 h4         1 E6N       0.260000
     54 H10          4.4970    -5.8730     0.2480 hc         1 E6N       0.057200
     55 H11          4.5750    -6.2840     1.9610 hc         1 E6N       0.057200
     56 H12          7.7130    -3.7050     0.4290 hc         1 E6N       0.042700
     57 H13          6.4980    -4.2480    -0.7210 hc         1 E6N       0.042700
     58 H14         -3.2810     4.8790     2.1470 ha         1 E6N       0.126000
     59 H15         -0.4550    -1.9810     3.1420 hc         1 E6N       0.066950
     60 H16          0.0190    -0.9650     1.7870 hc         1 E6N       0.066950
     61 H17          0.6300    -2.2720    -0.5680 hc         1 E6N       0.066950
     62 H18          0.4360    -4.0180    -0.5860 hc         1 E6N       0.066950
     63 H19          6.6120    -4.9200     2.2820 hc         1 E6N       0.044700
     64 H20          6.8800    -6.0370     0.9510 hc         1 E6N       0.044700
     65 H21          6.0240    -2.3300     1.6500 hc         1 E6N       0.051200
     66 H22          6.0360    -1.8980    -0.0530 hc         1 E6N       0.051200
     67 H23          4.0630    -3.4460    -0.4480 hc         1 E6N       0.071700
     68 H24          4.4850    -1.6480    -1.7660 ha         1 E6N       0.115000
     69 H25          4.0940     0.0600    -3.4500 ha         1 E6N       0.120000
     70 H26         -2.4920     3.6140     4.0550 h1         1 E6N       0.046033
     71 H27         -3.6500     2.7080     3.0470 h1         1 E6N       0.046033
     72 H28         -2.4930     1.8380     4.0740 h1         1 E6N       0.046033
     73 H29         -3.1040     6.6110     0.4010 ha         1 E6N       0.113000
     74 H30          0.2310     4.5440    -1.3720 ha         1 E6N       0.135000
     75 H31         -0.8820     1.2030    -3.2800 ha         1 E6N       0.155000
     76 H32         -1.5360    -2.8920    -1.6400 h1         1 E6N       0.070200
     77 H33         -2.0070    -3.8090    -0.2110 h1         1 E6N       0.070200
     78 H34          4.2570    -3.8260     2.5570 hc         1 E6N       0.079700
     79 H35          4.1200     2.2490    -4.4260 h1         1 E6N       0.040700
     80 H36          2.7670     1.2620    -5.0440 h1         1 E6N       0.040700
     81 H37          2.6720     3.0350    -5.0900 h1         1 E6N       0.040700
     82 O5           1.8850    -5.5000     1.7380 o          1 E6N      -0.536000
     83 H8          -0.5590    -0.9160    -2.0080 ha         1 E6N       0.140000
     84 O4          -5.3730     1.5790     1.2470 o          1 E6N      -0.402500
@<TRIPOS>BOND
     1     1    30 ar  
     2     1    31 ar  
     3     1    46 1   
     4     2     3 1   
     5     2    29 ar  
     6     2    31 ar  
     7     3    32 1   
     8     3    47 1   
     9     3    48 1   
    10     4    16 ar  
    11     4    17 ar  
    12     4    49 1   
    13     5    13 1   
    14     5    19 1   
    15     5    22 1   
    16     5    50 1   
    17     6    19 1   
    18     6    34 1   
    19     6    51 1   
    20     6    52 1   
    21     7    20 1   
    22     7    35 2   
    23     7    83 1   
    24     8    36 1   
    25     8    37 2   
    26     8    53 1   
    27     9    13 1   
    28     9    42 1   
    29     9    82 2   
    30    10    23 1   
    31    10    42 1   
    32    10    54 1   
    33    10    55 1   
    34    11    23 1   
    35    11    24 1   
    36    11    56 1   
    37    11    57 1   
    38    12    28 1   
    39    12    29 1   
    40    13    33 1   
    41    14    29 ar  
    42    14    30 ar  
    43    14    58 1   
    44    15    21 1   
    45    15    37 1   
    46    15    40 1   
    47    16    32 1   
    48    16    43 ar  
    49    17    18 1   
    50    17    26 ar  
    51    18    25 1   
    52    18    33 2   
    53    19    59 1   
    54    19    60 1   
    55    20    34 1   
    56    20    40 2   
    57    21    35 1   
    58    21    36 2   
    59    22    41 1   
    60    22    61 1   
    61    22    62 1   
    62    23    63 1   
    63    23    64 1   
    64    24    25 1   
    65    24    65 1   
    66    24    66 1   
    67    25    42 1   
    68    25    67 1   
    69    26    27 ar  
    70    26    68 1   
    71    27    43 ar  
    72    27    69 1   
    73    28    70 1   
    74    28    71 1   
    75    28    72 1   
    76    30    73 1   
    77    31    74 1   
    78    34    41 1   
    79    35    75 1   
    80    37    38 1   
    81    38    39 1   
    82    38    84 1   
    83    41    76 1   
    84    41    77 1   
    85    42    78 1   
    86    43    44 1   
    87    44    45 1   
    88    45    79 1   
    89    45    80 1   
    90    45    81 1   
@<TRIPOS>SUBSTRUCTURE
     1 E6N         1 TEMP              0 ****  ****    0 ROOT
