@<TRIPOS>MOLECULE
E6N
   84    90     1     0     0
SMALL
abcg2


@<TRIPOS>ATOM
      1 C5          -1.1770     5.8450    -0.8090 ca         1 E6N      -0.153000
      2 C7          -0.3320     3.8080     0.1770 ca         1 E6N      -0.128300
      3 C8           0.4470     2.5260     0.1100 c3         1 E6N       0.217900
      4 C10          2.1020     0.3470    -0.4900 ca         1 E6N      -0.144000
      5 C13         -0.1690    -3.7900     0.6380 c6         1 E6N       0.137700
      6 C15         -2.4670    -2.9140     1.2100 c6         1 E6N       0.198300
      7 C17         -2.6060    -1.3060    -2.1610 cc         1 E6N      -0.170000
      8 C20         -3.3970     2.8290    -0.7610 cc         1 E6N       0.065600
      9 C24          2.1350    -4.2620     1.4360 c          1 E6N       0.558000
     10 C26          4.5600    -4.6750     2.0020 c6         1 E6N      -0.059400
     11 C28          6.3350    -3.1920     1.0090 c6         1 E6N      -0.078400
     12 O1          -0.9020     3.2120     2.3560 os         1 E6N      -0.356100
     13 N2           1.2600    -3.4960     0.7290 n          1 E6N      -0.179800
     14 C3          -1.7440     5.2960     1.4660 ca         1 E6N      -0.186000
     15 N6          -3.1240     0.6640    -0.4410 na         1 E6N       0.318900
     16 C9           2.1400     1.5260    -1.2050 ca         1 E6N       0.116100
     17 C11          2.9650    -0.7140    -0.7940 ca         1 E6N      -0.123900
     18 C12          2.7940    -1.9950    -0.0800 ce         1 E6N       0.413900
     19 C14         -0.9690    -2.7790     1.4650 c6         1 E6N      -0.123900
     20 C16         -2.7890    -1.5350    -0.7540 cc         1 E6N       0.576900
     21 C19         -2.9500     1.0030    -1.7500 cd         1 E6N      -0.115000
     22 C23         -0.6010    -3.8290    -0.8300 c6         1 E6N      -0.123900
     23 C27          5.9040    -3.9940     2.2310 c6         1 E6N      -0.078400
     24 C29          5.2660    -2.1930     0.5810 c6         1 E6N      -0.066400
     25 C30          3.9340    -2.8970     0.3160 c6         1 E6N      -0.122000
     26 C31          3.8670    -0.5620    -1.8340 ca         1 E6N      -0.091000
     27 C32          3.9130     0.6240    -2.5640 ca         1 E6N      -0.180000
     28 C1          -1.3060     3.5730     3.6630 c3         1 E6N       0.145900
     29 C2          -1.0080     4.1200     1.3650 ca         1 E6N       0.137100
     30 C4          -1.8260     6.1530     0.3750 ca         1 E6N      -0.077000
     31 C6          -0.4320     4.6760    -0.9000 ca         1 E6N      -0.049000
     32 O2           1.3430     2.5890    -0.9760 os         1 E6N      -0.327100
     33 N1           1.5810    -2.3070     0.1550 n2         1 E6N      -0.464300
     34 N3          -2.7350    -2.7880    -0.2180 nh         1 E6N      -0.736300
     35 C18         -2.6760    -0.0440    -2.6470 cd         1 E6N      -0.014000
     36 N4          -3.1020     2.3130    -1.9500 nc         1 E6N      -0.269600
     37 C21         -3.4230     1.8380     0.2090 cd         1 E6N      -0.269200
     38 N5          -3.7250     1.9700     1.5690 no         1 E6N       0.731100
     39 O3          -4.1630     3.0510     1.9190 o          1 E6N      -0.402500
     40 N7          -3.0310    -0.5500     0.0820 nd         1 E6N      -0.537800
     41 C22         -2.1190    -3.8850    -0.9510 c6         1 E6N       0.198300
     42 C25          3.5100    -3.6550     1.5790 c6         1 E6N      -0.148700
     43 C33          3.0610     1.6740    -2.2640 ca         1 E6N       0.124100
     44 O6           3.0270     2.8540    -2.9040 os         1 E6N      -0.316100
     45 C34          3.9150     3.0510    -3.9870 c3         1 E6N       0.144900
     46 H1          -1.2430     6.5110    -1.6590 ha         1 E6N       0.116000
     47 H2           0.9950     2.3570     1.0430 h1         1 E6N       0.046200
     48 H3          -0.2420     1.6770    -0.0070 h1         1 E6N       0.046200
     49 H4           1.3990     0.2150     0.3200 ha         1 E6N       0.136000
     50 H5          -0.3170    -4.7840     1.0630 h1         1 E6N       0.080700
     51 H6          -2.8280    -3.8950     1.5260 h1         1 E6N       0.070200
     52 H7          -3.0250    -2.1680     1.7690 h1         1 E6N       0.070200
     53 H9          -3.5650     3.8850    -0.6100 h4         1 E6N       0.260000
     54 H10          4.6590    -5.4360     1.2210 hc         1 E6N       0.057200
     55 H11          4.2400    -5.1890     2.9080 hc         1 E6N       0.057200
     56 H12          7.2690    -2.6640     1.2110 hc         1 E6N       0.042700
     57 H13          6.5370    -3.8770     0.1780 hc         1 E6N       0.042700
     58 H14         -2.2610     5.5520     2.3800 ha         1 E6N       0.126000
     59 H15         -0.7600    -2.9280     2.5270 hc         1 E6N       0.066950
     60 H16         -0.6540    -1.7640     1.2110 hc         1 E6N       0.066950
     61 H17         -0.2310    -2.9410    -1.3490 hc         1 E6N       0.066950
     62 H18         -0.1600    -4.6990    -1.3210 hc         1 E6N       0.066950
     63 H19          5.8280    -3.3260     3.0960 hc         1 E6N       0.044700
     64 H20          6.6600    -4.7420     2.4790 hc         1 E6N       0.044700
     65 H21          5.1190    -1.4420     1.3650 hc         1 E6N       0.051200
     66 H22          5.6100    -1.6580    -0.3030 hc         1 E6N       0.051200
     67 H23          4.0800    -3.6270    -0.4960 hc         1 E6N       0.071700
     68 H24          4.5250    -1.3710    -2.1220 ha         1 E6N       0.115000
     69 H25          4.6220     0.7040    -3.3770 ha         1 E6N       0.120000
     70 H26         -0.8010     4.4800     4.0030 h1         1 E6N       0.046033
     71 H27         -2.3850     3.7200     3.7360 h1         1 E6N       0.046033
     72 H28         -1.0230     2.7470     4.3110 h1         1 E6N       0.046033
     73 H29         -2.4050     7.0630     0.4610 ha         1 E6N       0.113000
     74 H30          0.0820     4.4440    -1.8230 ha         1 E6N       0.135000
     75 H31         -2.5340     0.1740    -3.6950 ha         1 E6N       0.155000
     76 H32         -2.4310    -3.8920    -1.9930 h1         1 E6N       0.070200
     77 H33         -2.5050    -4.8120    -0.5210 h1         1 E6N       0.070200
     78 H34          3.4080    -2.9070     2.3830 hc         1 E6N       0.079700
     79 H35          4.9600     2.9810    -3.6750 h1         1 E6N       0.040700
     80 H36          3.7380     2.3360    -4.7940 h1         1 E6N       0.040700
     81 H37          3.7270     4.0540    -4.3610 h1         1 E6N       0.040700
     82 O5           1.8080    -5.3170     1.9510 o          1 E6N      -0.536000
     83 H8          -2.4030    -2.1230    -2.8350 ha         1 E6N       0.140000
     84 O4          -3.5470     1.0340     2.3170 o          1 E6N      -0.402500
@<TRIPOS>BOND
     1     1    30 ar  
     2     1    31 ar  
     3     1    46 1   
     4     2     3 1   
     5     2    29 ar  
     6     2    31 ar  
     7     3    32 1   
     8     3    47 1   
     9     3    48 1   
    10     4    16 ar  
    11     4    17 ar  
    12     4    49 1   
    13     5    13 1   
    14     5    19 1   
    15     5    22 1   
    16     5    50 1   
    17     6    19 1   
    18     6    34 1   
    19     6    51 1   
    20     6    52 1   
    21     7    20 1   
    22     7    35 2   
    23     7    83 1   
    24     8    36 1   
    25     8    37 2   
    26     8    53 1   
    27     9    13 1   
    28     9    42 1   
    29     9    82 2   
    30    10    23 1   
    31    10    42 1   
    32    10    54 1   
    33    10    55 1   
    34    11    23 1   
    35    11    24 1   
    36    11    56 1   
    37    11    57 1   
    38    12    28 1   
    39    12    29 1   
    40    13    33 1   
    41    14    29 ar  
    42    14    30 ar  
    43    14    58 1   
    44    15    21 1   
    45    15    37 1   
    46    15    40 1   
    47    16    32 1   
    48    16    43 ar  
    49    17    18 1   
    50    17    26 ar  
    51    18    25 1   
    52    18    33 2   
    53    19    59 1   
    54    19    60 1   
    55    20    34 1   
    56    20    40 2   
    57    21    35 1   
    58    21    36 2   
    59    22    41 1   
    60    22    61 1   
    61    22    62 1   
    62    23    63 1   
    63    23    64 1   
    64    24    25 1   
    65    24    65 1   
    66    24    66 1   
    67    25    42 1   
    68    25    67 1   
    69    26    27 ar  
    70    26    68 1   
    71    27    43 ar  
    72    27    69 1   
    73    28    70 1   
    74    28    71 1   
    75    28    72 1   
    76    30    73 1   
    77    31    74 1   
    78    34    41 1   
    79    35    75 1   
    80    37    38 1   
    81    38    39 1   
    82    38    84 1   
    83    41    76 1   
    84    41    77 1   
    85    42    78 1   
    86    43    44 1   
    87    44    45 1   
    88    45    79 1   
    89    45    80 1   
    90    45    81 1   
@<TRIPOS>SUBSTRUCTURE
     1 E6N         1 TEMP              0 ****  ****    0 ROOT
