@<TRIPOS>MOLECULE
E6O
   53    56     1     0     0
SMALL
abcg2


@<TRIPOS>ATOM
      1 C1          46.9250    29.1420    11.5620 c5         1 E6O      -0.038100
      2 C2          46.2030    27.9340    11.0180 ca         1 E6O      -0.074300
      3 C3          45.4190    28.3040     9.9220 ca         1 E6O      -0.085300
      4 C4          45.5640    29.7740     9.6400 c5         1 E6O      -0.035100
      5 C5          46.8450    30.1450    10.4010 c5         1 E6O      -0.078400
      6 C6          46.2090    26.6220    11.4780 ca         1 E6O      -0.089300
      7 C7          45.4190    25.6880    10.8030 ca         1 E6O      -0.106000
      8 C8          44.6450    26.0540     9.7130 ca         1 E6O      -0.110000
      9 C9          44.6380    27.3710     9.2630 ca         1 E6O      -0.092000
     10 C11         46.2440    25.5810    13.7780 c3         1 E6O      -0.081100
     11 C26         52.8470    24.3310     9.7440 ca         1 E6O       0.159000
     12 C25         51.9380    23.2940     9.6250 ca         1 E6O      -0.109000
     13 C24         51.0660    23.0080    10.6690 ca         1 E6O      -0.031600
     14 C29         50.1630    21.8120    10.4630 c          1 E6O       0.620700
     15 N31         49.0430    22.0850     9.7930 nt         1 E6O      -0.598000
     16 O30         50.5330    20.7040    10.8070 o          1 E6O      -0.565100
     17 C27         52.9210    25.0960    10.8990 ca         1 E6O      -0.113000
     18 C28         52.0600    24.8100    11.9400 ca         1 E6O      -0.026000
     19 C23         51.1360    23.7760    11.8260 ca         1 E6O      -0.279500
     20 S20         50.0200    23.5610    13.1940 sy         1 E6O       1.170600
     21 O21         49.1600    22.4320    12.9020 o          1 E6O      -0.516500
     22 O22         50.7970    23.6120    14.4170 o          1 E6O      -0.516500
     23 C12         48.1370    25.1990    12.1470 c3         1 E6O       0.229200
     24 C13         48.8350    25.7210    10.9350 cc         1 E6O       0.472600
     25 N17         48.8660    25.1970     9.7730 n2         1 E6O      -0.483300
     26 N16         49.6580    26.0290     9.0510 ns         1 E6O      -0.390400
     27 C15         50.1120    27.0670     9.7820 c          1 E6O       0.662100
     28 O18         50.8200    27.9960     9.5140 o          1 E6O      -0.488000
     29 O14         49.5620    26.8500    11.0230 os         1 E6O      -0.396700
     30 C10         47.0650    26.1910    12.6460 c3         1 E6O      -0.003400
     31 H1          47.9540    28.9480    11.8660 hc         1 E6O       0.056200
     32 H2          46.4010    29.5190    12.4470 hc         1 E6O       0.056200
     33 H3          45.6220    30.0000     8.5740 hc         1 E6O       0.055200
     34 H4          44.7000    30.3180    10.0340 hc         1 E6O       0.055200
     35 H5          47.7070    30.0060     9.7460 hc         1 E6O       0.050200
     36 H6          46.8540    31.1810    10.7390 hc         1 E6O       0.050200
     37 H7          45.4030    24.6540    11.1300 ha         1 E6O       0.113000
     38 H8          44.0440    25.3080     9.2090 ha         1 E6O       0.115000
     39 H9          44.0360    27.6550     8.4080 ha         1 E6O       0.117000
     40 H10         46.8660    25.3560    14.6430 hc         1 E6O       0.046700
     41 H11         45.4720    26.2810    14.0960 hc         1 E6O       0.046700
     42 H12         45.7530    24.6590    13.4670 hc         1 E6O       0.046700
     43 H13         51.9010    22.7090     8.7160 ha         1 E6O       0.141000
     44 H14         48.3840    21.3520     9.5840 hn         1 E6O       0.326500
     45 H15         48.7890    23.0330     9.5560 hn         1 E6O       0.326500
     46 H16         53.6360    25.9020    10.9870 ha         1 E6O       0.143000
     47 H17         52.1170    25.4070    12.8420 ha         1 E6O       0.133000
     48 H19         47.6440    24.2700    11.8490 h1         1 E6O       0.110700
     49 H20         49.8430    25.8530     8.0750 hn         1 E6O       0.504000
     50 H21         47.5850    27.0690    13.0390 hc         1 E6O       0.065700
     51 N19         49.0680    24.9040    13.2200 n7         1 E6O      -0.894300
     52 CL          53.9010    24.6810     8.4280 cl         1 E6O      -0.175000
     53 H18         49.4940    25.7020    13.6800 hn         1 E6O       0.502000
@<TRIPOS>BOND
     1     1     2 1   
     2     1     5 1   
     3     1    31 1   
     4     1    32 1   
     5     2     3 ar  
     6     2     6 ar  
     7     3     4 1   
     8     3     9 ar  
     9     4     5 1   
    10     4    33 1   
    11     4    34 1   
    12     5    35 1   
    13     5    36 1   
    14     6     7 ar  
    15     6    30 1   
    16     7     8 ar  
    17     7    37 1   
    18     8     9 ar  
    19     8    38 1   
    20     9    39 1   
    21    10    30 1   
    22    10    40 1   
    23    10    41 1   
    24    10    42 1   
    25    11    12 ar  
    26    11    17 ar  
    27    11    52 1   
    28    12    13 ar  
    29    12    43 1   
    30    13    14 1   
    31    13    19 ar  
    32    14    15 1   
    33    14    16 2   
    34    15    44 1   
    35    15    45 1   
    36    17    18 ar  
    37    17    46 1   
    38    18    19 ar  
    39    18    47 1   
    40    19    20 1   
    41    20    21 2   
    42    20    22 2   
    43    20    51 1   
    44    23    24 1   
    45    23    30 1   
    46    23    48 1   
    47    23    51 1   
    48    24    25 2   
    49    24    29 1   
    50    25    26 1   
    51    26    27 1   
    52    26    49 1   
    53    27    28 2   
    54    27    29 1   
    55    30    50 1   
    56    51    53 1   
@<TRIPOS>SUBSTRUCTURE
     1 E6O         1 TEMP              0 ****  ****    0 ROOT
