@<TRIPOS>MOLECULE
E6O
   53    56     1     0     0
SMALL
No Charge or Current Charge


@<TRIPOS>ATOM
      1 C1          47.2700    29.0660    11.3530 c5         1 E6O      -0.038100
      2 C2          46.2330    28.0060    11.0490 ca         1 E6O      -0.074300
      3 C3          45.3640    28.4310    10.0600 ca         1 E6O      -0.085300
      4 C4          45.6850    29.8160     9.5640 c5         1 E6O      -0.035100
      5 C5          47.1670    29.9660    10.0670 c5         1 E6O      -0.078400
      6 C6          46.0840    26.7360    11.6520 ca         1 E6O      -0.089300
      7 C7          45.0270    25.9100    11.2030 ca         1 E6O      -0.106000
      8 C8          44.1470    26.3480    10.1940 ca         1 E6O      -0.110000
      9 C9          44.3110    27.6190     9.6180 ca         1 E6O      -0.092000
     10 C11         46.2700    25.9000    14.0430 c3         1 E6O      -0.081100
     11 C26         52.9440    24.8900    10.1300 ca         1 E6O       0.159000
     12 C25         52.2070    23.7570     9.7630 ca         1 E6O      -0.109000
     13 C24         51.2840    23.1650    10.6560 ca         1 E6O      -0.031600
     14 C29         50.6360    21.8630    10.2250 c          1 E6O       0.620700
     15 N31         50.1170    21.8180     8.9780 nt         1 E6O      -0.598000
     16 O30         50.6780    20.8430    10.8940 o          1 E6O      -0.565100
     17 C27         52.7880    25.4470    11.4030 ca         1 E6O      -0.113000
     18 C28         51.8620    24.8950    12.3000 ca         1 E6O      -0.026000
     19 C23         51.0720    23.7800    11.9300 ca         1 E6O      -0.279500
     20 S20         49.7760    23.2540    13.0870 sy         1 E6O       1.170600
     21 O21         48.8400    22.3170    12.4650 o          1 E6O      -0.516500
     22 O22         50.3550    23.0020    14.4070 o          1 E6O      -0.516500
     23 C12         47.9040    25.0410    12.2280 c3         1 E6O       0.229200
     24 C13         48.5230    25.3530    10.8620 cc         1 E6O       0.472600
     25 N17         48.2760    24.7830     9.7180 n2         1 E6O      -0.483300
     26 N16         49.0760    25.4790     8.8360 ns         1 E6O      -0.390400
     27 C15         49.8130    26.4570     9.4460 c          1 E6O       0.662100
     28 O18         50.5480    27.2830     8.9370 o          1 E6O      -0.488000
     29 O14         49.4440    26.3520    10.7440 os         1 E6O      -0.396700
     30 C10         47.0440    26.2350    12.7430 c3         1 E6O      -0.003400
     31 H1          48.2840    28.6730    11.4830 hc         1 E6O       0.056200
     32 H2          47.0120    29.6260    12.2590 hc         1 E6O       0.056200
     33 H3          45.6040    29.9150     8.4750 hc         1 E6O       0.055200
     34 H4          45.0260    30.5660    10.0180 hc         1 E6O       0.055200
     35 H5          47.8590    29.5980     9.3000 hc         1 E6O       0.050200
     36 H6          47.4400    31.0090    10.2620 hc         1 E6O       0.050200
     37 H7          44.8820    24.9210    11.6320 ha         1 E6O       0.113000
     38 H8          43.3370    25.7020     9.8610 ha         1 E6O       0.115000
     39 H9          43.6330    27.9650     8.8410 ha         1 E6O       0.117000
     40 H10         46.9590    25.6850    14.8680 hc         1 E6O       0.046700
     41 H11         45.6450    26.7500    14.3440 hc         1 E6O       0.046700
     42 H12         45.6200    25.0280    13.9080 hc         1 E6O       0.046700
     43 H13         52.3890    23.3110     8.7880 ha         1 E6O       0.141000
     44 H14         49.7070    20.9580     8.6460 hn         1 E6O       0.326500
     45 H15         50.0710    22.6580     8.4210 hn         1 E6O       0.326500
     46 H16         53.3780    26.3130    11.6920 ha         1 E6O       0.143000
     47 H17         51.7550    25.3540    13.2830 ha         1 E6O       0.133000
     48 H19         47.2090    24.2050    12.0690 h1         1 E6O       0.110700
     49 H20         49.0610    25.4260     7.8150 hn         1 E6O       0.504000
     50 H21         47.7410    27.0370    13.0090 hc         1 E6O       0.065700
     51 N19         48.9160    24.6760    13.2740 n7         1 E6O      -0.894300
     52 Cl          54.0980    25.5890     9.0020 cl         1 E6O      -0.175000
     53 H18         49.6550    25.3740    13.2570 hn         1 E6O       0.502000
@<TRIPOS>BOND
     1     1     2 1   
     2     1     5 1   
     3     1    31 1   
     4     1    32 1   
     5     2     3 ar  
     6     2     6 ar  
     7     3     4 1   
     8     3     9 ar  
     9     4     5 1   
    10     4    33 1   
    11     4    34 1   
    12     5    35 1   
    13     5    36 1   
    14     6     7 ar  
    15     6    30 1   
    16     7     8 ar  
    17     7    37 1   
    18     8     9 ar  
    19     8    38 1   
    20     9    39 1   
    21    10    30 1   
    22    10    40 1   
    23    10    41 1   
    24    10    42 1   
    25    11    12 ar  
    26    11    17 ar  
    27    11    52 1   
    28    12    13 ar  
    29    12    43 1   
    30    13    14 1   
    31    13    19 ar  
    32    14    15 1   
    33    14    16 2   
    34    15    44 1   
    35    15    45 1   
    36    17    18 ar  
    37    17    46 1   
    38    18    19 ar  
    39    18    47 1   
    40    19    20 1   
    41    20    21 2   
    42    20    22 2   
    43    20    51 1   
    44    23    24 1   
    45    23    30 1   
    46    23    48 1   
    47    23    51 1   
    48    24    25 2   
    49    24    29 1   
    50    25    26 1   
    51    26    27 1   
    52    26    49 1   
    53    27    28 2   
    54    27    29 1   
    55    30    50 1   
    56    51    53 1   
@<TRIPOS>SUBSTRUCTURE
     1 E6O         1 TEMP              0 ****  ****    0 ROOT
