@<TRIPOS>MOLECULE
E6P
   77    79     1     0     0
SMALL
No Charge or Current Charge


@<TRIPOS>ATOM
      1 C2          25.6300     5.9010    16.2860 ca         1 E6P       0.495000
      2 C4          27.0760     6.3340    17.9880 ca         1 E6P       0.638900
      3 C5          28.1960     6.1410    17.1730 ca         1 E6P      -0.232000
      4 C8          26.6770     5.7080    15.3700 ca         1 E6P      -0.171000
      5 C10         29.1760     5.6490    14.8550 c          1 E6P       0.612700
      6 C15         32.5690     6.7050    15.6400 c3         1 E6P      -0.094400
      7 C18         31.9020     8.0700    16.0050 c3         1 E6P      -0.050700
      8 C13         31.7060     5.7310    14.7870 c3         1 E6P       0.074700
      9 C20         32.7850     8.8490    17.0230 c3         1 E6P      -0.110400
     10 C23         32.2130    10.2020    17.5240 c3         1 E6P       0.160600
     11 C27         30.9010     9.3760    19.4210 c3         1 E6P       0.158600
     12 C30         29.5250     9.6490    20.0710 c3         1 E6P      -0.073400
     13 C33         28.3420     8.8520    19.4680 c3         1 E6P      -0.107400
     14 C36         28.2650     7.3880    19.9570 c3         1 E6P       0.227800
     15 C41         31.5790     8.9070    14.7400 c3         1 E6P      -0.093100
     16 C45         32.4090     4.3670    14.5120 c3         1 E6P       0.168300
     17 C49         31.5530     3.3760    13.6780 c3         1 E6P       0.159800
     18 C54         31.7510     1.3940    12.1490 c3         1 E6P       0.216100
     19 C57         31.2840     2.1510    10.9090 ca         1 E6P      -0.089300
     20 C58         32.2230     2.7910    10.0760 ca         1 E6P      -0.083000
     21 C60         31.8070     3.5050     8.9320 ca         1 E6P      -0.078300
     22 C61         30.4320     3.5670     8.6270 ca         1 E6P      -0.109000
     23 C63         29.4910     2.9290     9.4520 ca         1 E6P      -0.113000
     24 C65         29.9150     2.2240    10.5900 ca         1 E6P      -0.115000
     25 C67         32.8260     4.2110     8.0350 c3         1 E6P      -0.013400
     26 C69         33.5690     5.3300     8.7970 c3         1 E6P      -0.086100
     27 C7          28.0130     5.8190    15.8090 ca         1 E6P      -0.064600
     28 C73         33.8090     3.2060     7.3940 c3         1 E6P      -0.086100
     29 N11         30.4120     5.5490    15.4550 ns         1 E6P      -0.503900
     30 N3          25.8170     6.2110    17.5850 nb         1 E6P      -0.745000
     31 N39         27.1560     6.6760    19.3050 nu         1 E6P      -0.933100
     32 N52         32.4130     2.2920    13.1170 n7         1 E6P      -0.865400
     33 O26         30.9150    10.0230    18.1330 os         1 E6P      -0.457000
     34 O47         33.6330     4.5490    13.7920 oh         1 E6P      -0.641000
     35 O77         29.0410     5.6460    13.6400 o          1 E6P      -0.583100
     36 Cl1         23.9590     5.7550    15.7610 cl         1 E6P      -0.173000
     37 H1          29.1840     6.2710    17.5970 ha         1 E6P       0.129000
     38 H2          26.4470     5.4720    14.3350 ha         1 E6P       0.156000
     39 H3          32.8440     6.1900    16.5690 hc         1 E6P       0.042700
     40 H4          33.5100     6.9070    15.1130 hc         1 E6P       0.042700
     41 H5          30.9500     7.8650    16.5100 hc         1 E6P       0.053700
     42 H6          31.5290     6.2010    13.8100 h1         1 E6P       0.098700
     43 H7          32.9880     8.2100    17.8910 hc         1 E6P       0.040700
     44 H8          33.7600     9.0460    16.5620 hc         1 E6P       0.040700
     45 H9          32.9160    10.6500    18.2390 h1         1 E6P       0.046700
     46 H10         32.1360    10.8950    16.6770 h1         1 E6P       0.046700
     47 H11         31.0760     8.2960    19.3290 h1         1 E6P       0.019200
     48 H12         31.6810     9.7990    20.0670 h1         1 E6P       0.019200
     49 H13         29.5910     9.4340    21.1450 hc         1 E6P       0.050700
     50 H14         29.3110    10.7220    19.9900 hc         1 E6P       0.050700
     51 H15         28.4070     8.8810    18.3730 hc         1 E6P       0.058700
     52 H16         27.4060     9.3550    19.7390 hc         1 E6P       0.058700
     53 H17         28.1120     7.3890    21.0450 h1         1 E6P       0.048700
     54 H18         29.2180     6.8760    19.7630 h1         1 E6P       0.048700
     55 H19         31.0530     9.8320    15.0010 hc         1 E6P       0.041033
     56 H20         32.4970     9.1720    14.2020 hc         1 E6P       0.041033
     57 H21         30.9260     8.3550    14.0550 hc         1 E6P       0.041033
     58 H22         32.6280     3.8900    15.4760 h1         1 E6P       0.022700
     59 H23         31.0740     3.9410    12.8660 h1         1 E6P       0.053200
     60 H24         30.7520     2.9620    14.3060 h1         1 E6P       0.053200
     61 H25         30.8940     0.8940    12.6200 h1         1 E6P       0.036200
     62 H26         32.4500     0.6080    11.8330 h1         1 E6P       0.036200
     63 H27         33.2790     2.7370    10.3290 ha         1 E6P       0.144000
     64 H28         30.0900     4.1130     7.7500 ha         1 E6P       0.107000
     65 H29         28.4320     2.9840     9.2100 ha         1 E6P       0.109000
     66 H30         29.1780     1.7370    11.2250 ha         1 E6P       0.105000
     67 H31         32.2920     4.6970     7.2080 hc         1 E6P       0.043700
     68 H32         32.8540     6.0440     9.2240 hc         1 E6P       0.035200
     69 H33         34.1740     4.9200     9.6150 hc         1 E6P       0.035200
     70 H34         34.2360     5.8800     8.1230 hc         1 E6P       0.035200
     71 H35         33.2610     2.4340     6.8410 hc         1 E6P       0.035200
     72 H36         34.4790     3.7170     6.6910 hc         1 E6P       0.035200
     73 H37         34.4250     2.7130     8.1550 hc         1 E6P       0.035200
     74 H38         30.4100     5.5100    16.4660 hn         1 E6P       0.312500
     75 H39         26.2280     6.7930    19.7040 hn         1 E6P       0.504000
     76 H40         32.7420     1.7110    13.9000 hn         1 E6P       0.408000
     77 H42         33.6420     3.7460    13.2130 ho         1 E6P       0.438000
@<TRIPOS>BOND
     1     1     4 ar  
     2     1    30 ar  
     3     1    36 1   
     4     2     3 ar  
     5     2    30 ar  
     6     2    31 1   
     7     3    27 ar  
     8     3    37 1   
     9     4    27 ar  
    10     4    38 1   
    11     5    27 1   
    12     5    29 1   
    13     5    35 2   
    14     6     7 1   
    15     6     8 1   
    16     6    39 1   
    17     6    40 1   
    18     7     9 1   
    19     7    15 1   
    20     7    41 1   
    21     8    16 1   
    22     8    29 1   
    23     8    42 1   
    24     9    10 1   
    25     9    43 1   
    26     9    44 1   
    27    10    33 1   
    28    10    45 1   
    29    10    46 1   
    30    11    12 1   
    31    11    33 1   
    32    11    47 1   
    33    11    48 1   
    34    12    13 1   
    35    12    49 1   
    36    12    50 1   
    37    13    14 1   
    38    13    51 1   
    39    13    52 1   
    40    14    31 1   
    41    14    53 1   
    42    14    54 1   
    43    15    55 1   
    44    15    56 1   
    45    15    57 1   
    46    16    17 1   
    47    16    34 1   
    48    16    58 1   
    49    17    32 1   
    50    17    59 1   
    51    17    60 1   
    52    18    19 1   
    53    18    32 1   
    54    18    61 1   
    55    18    62 1   
    56    19    20 ar  
    57    19    24 ar  
    58    20    21 ar  
    59    20    63 1   
    60    21    22 ar  
    61    21    25 1   
    62    22    23 ar  
    63    22    64 1   
    64    23    24 ar  
    65    23    65 1   
    66    24    66 1   
    67    25    26 1   
    68    25    28 1   
    69    25    67 1   
    70    26    68 1   
    71    26    69 1   
    72    26    70 1   
    73    28    71 1   
    74    28    72 1   
    75    28    73 1   
    76    29    74 1   
    77    31    75 1   
    78    32    76 1   
    79    34    77 1   
@<TRIPOS>SUBSTRUCTURE
     1 E6P         1 TEMP              0 ****  ****    0 ROOT
