@<TRIPOS>MOLECULE
E6P
   77    79     1     0     0
SMALL
bcc


@<TRIPOS>ATOM
      1 C2          25.7430     5.3900    17.4530 ca         1 E6P       0.560300
      2 C4          27.4350     6.2320    18.7180 ca         1 E6P       0.704200
      3 C5          28.2690     6.2880    17.5840 ca         1 E6P      -0.315300
      4 C8          26.4570     5.4080    16.2720 ca         1 E6P      -0.254300
      5 C10         28.6140     5.9570    15.1330 c          1 E6P       0.679700
      6 C15         32.0260     6.7640    15.0290 c3         1 E6P      -0.094400
      7 C18         31.4980     8.1000    15.5560 c3         1 E6P      -0.050700
      8 C13         30.9760     5.8650    14.3700 c3         1 E6P       0.074700
      9 C20         32.6240     8.8320    16.2920 c3         1 E6P      -0.110400
     10 C23         32.1940    10.0950    17.0250 c3         1 E6P       0.137400
     11 C27         31.5170     9.2220    19.1250 c3         1 E6P       0.135400
     12 C30         30.4480     9.4310    20.1830 c3         1 E6P      -0.073400
     13 C33         29.1040     8.7640    19.8910 c3         1 E6P      -0.107400
     14 C36         29.1100     7.2700    20.2130 c3         1 E6P       0.227800
     15 C41         30.9020     8.9480    14.4360 c3         1 E6P      -0.093100
     16 C45         31.5620     4.5150    13.9060 c3         1 E6P       0.145100
     17 C49         30.5730     3.7600    13.0300 c3         1 E6P       0.159800
     18 C54         30.3270     1.7590    11.6760 c3         1 E6P       0.216100
     19 C57         30.8110     2.2100    10.3160 ca         1 E6P      -0.089300
     20 C58         32.0000     2.9110    10.1640 ca         1 E6P      -0.101000
     21 C60         32.4500     3.3260     8.9110 ca         1 E6P      -0.078300
     22 C61         31.6940     3.0020     7.7910 ca         1 E6P      -0.127000
     23 C63         30.5050     2.2920     7.9260 ca         1 E6P      -0.131000
     24 C65         30.0610     1.9060     9.1810 ca         1 E6P      -0.133000
     25 C67         33.7140     4.1460     8.7900 c3         1 E6P      -0.013400
     26 C69         33.5210     5.5240     9.4270 c3         1 E6P      -0.086100
     27 C7          27.7700     5.8640    16.3700 ca         1 E6P      -0.064600
     28 C73         34.9220     3.4320     9.3950 c3         1 E6P      -0.086100
     29 N11         29.9010     5.6290    15.3140 ns         1 E6P      -0.570900
     30 N3          26.1800     5.7750    18.6250 nb         1 E6P      -0.745000
     31 N39         27.8550     6.6080    19.9400 nu         1 E6P      -0.877900
     32 N52         31.0170     2.4050    12.7710 n7         1 E6P      -0.810200
     33 O26         31.1470     9.9090    17.9510 os         1 E6P      -0.410600
     34 O47         32.7410     4.6970    13.1590 oh         1 E6P      -0.578800
     35 O77         28.1300     6.3210    14.0720 o          1 E6P      -0.583100
     36 CL1         24.1030     4.8090    17.4180 cl         1 E6P      -0.173000
     37 H1          29.2700     6.6860    17.6610 ha         1 E6P       0.147000
     38 H2          26.0290     5.0800    15.3360 ha         1 E6P       0.174000
     39 H3          32.4950     6.2140    15.8540 hc         1 E6P       0.042700
     40 H4          32.8170     6.9710    14.3030 hc         1 E6P       0.042700
     41 H5          30.7100     7.9050    16.2910 hc         1 E6P       0.053700
     42 H6          30.5470     6.3730    13.5030 h1         1 E6P       0.098700
     43 H7          33.1000     8.1420    16.9970 hc         1 E6P       0.040700
     44 H8          33.4080     9.1160    15.5810 hc         1 E6P       0.040700
     45 H9          33.0710    10.5300    17.5240 h1         1 E6P       0.046700
     46 H10         31.8360    10.8420    16.3110 h1         1 E6P       0.046700
     47 H11         31.6680     8.1510    18.9300 h1         1 E6P       0.019200
     48 H12         32.4740     9.6070    19.5040 h1         1 E6P       0.019200
     49 H13         30.8390     9.0630    21.1360 hc         1 E6P       0.050700
     50 H14         30.3040    10.5070    20.3160 hc         1 E6P       0.050700
     51 H15         28.8190     8.9270    18.8490 hc         1 E6P       0.058700
     52 H16         28.3260     9.2360    20.4970 hc         1 E6P       0.058700
     53 H17         29.3200     7.1310    21.2750 h1         1 E6P       0.048700
     54 H18         29.9160     6.7540    19.6840 h1         1 E6P       0.048700
     55 H19         30.5700     9.9210    14.7970 hc         1 E6P       0.041033
     56 H20         31.6380     9.1200    13.6460 hc         1 E6P       0.041033
     57 H21         30.0350     8.4700    13.9790 hc         1 E6P       0.041033
     58 H22         31.7670     3.9160    14.8090 h1         1 E6P       0.022700
     59 H23         30.4880     4.2930    12.0780 h1         1 E6P       0.053200
     60 H24         29.5750     3.7880    13.4870 h1         1 E6P       0.053200
     61 H25         29.2330     1.8870    11.7180 h1         1 E6P       0.036200
     62 H26         30.5010     0.6830    11.7640 h1         1 E6P       0.036200
     63 H27         32.5690     3.1600    11.0520 ha         1 E6P       0.162000
     64 H28         32.0290     3.3100     6.8070 ha         1 E6P       0.125000
     65 H29         29.9200     2.0490     7.0480 ha         1 E6P       0.127000
     66 H30         29.1250     1.3670     9.2800 ha         1 E6P       0.123000
     67 H31         33.9140     4.2930     7.7230 hc         1 E6P       0.043700
     68 H32         32.6920     6.0600     8.9650 hc         1 E6P       0.035200
     69 H33         33.3080     5.4360    10.4950 hc         1 E6P       0.035200
     70 H34         34.4190     6.1340     9.3130 hc         1 E6P       0.035200
     71 H35         35.0900     2.4610     8.9270 hc         1 E6P       0.035200
     72 H36         35.8270     4.0280     9.2590 hc         1 E6P       0.035200
     73 H37         34.7940     3.2700    10.4660 hc         1 E6P       0.035200
     74 H38         30.1730     5.2670    16.2160 hn         1 E6P       0.312500
     75 H39         27.1550     6.6180    20.6640 hn         1 E6P       0.448800
     76 H40         30.8990     1.8480    13.6060 hn         1 E6P       0.352800
     77 H42         33.4640     4.9010    13.7590 ho         1 E6P       0.399000
@<TRIPOS>BOND
     1     1     4 ar  
     2     1    30 ar  
     3     1    36 1   
     4     2     3 ar  
     5     2    30 ar  
     6     2    31 1   
     7     3    27 ar  
     8     3    37 1   
     9     4    27 ar  
    10     4    38 1   
    11     5    27 1   
    12     5    29 1   
    13     5    35 2   
    14     6     7 1   
    15     6     8 1   
    16     6    39 1   
    17     6    40 1   
    18     7     9 1   
    19     7    15 1   
    20     7    41 1   
    21     8    16 1   
    22     8    29 1   
    23     8    42 1   
    24     9    10 1   
    25     9    43 1   
    26     9    44 1   
    27    10    33 1   
    28    10    45 1   
    29    10    46 1   
    30    11    12 1   
    31    11    33 1   
    32    11    47 1   
    33    11    48 1   
    34    12    13 1   
    35    12    49 1   
    36    12    50 1   
    37    13    14 1   
    38    13    51 1   
    39    13    52 1   
    40    14    31 1   
    41    14    53 1   
    42    14    54 1   
    43    15    55 1   
    44    15    56 1   
    45    15    57 1   
    46    16    17 1   
    47    16    34 1   
    48    16    58 1   
    49    17    32 1   
    50    17    59 1   
    51    17    60 1   
    52    18    19 1   
    53    18    32 1   
    54    18    61 1   
    55    18    62 1   
    56    19    20 ar  
    57    19    24 ar  
    58    20    21 ar  
    59    20    63 1   
    60    21    22 ar  
    61    21    25 1   
    62    22    23 ar  
    63    22    64 1   
    64    23    24 ar  
    65    23    65 1   
    66    24    66 1   
    67    25    26 1   
    68    25    28 1   
    69    25    67 1   
    70    26    68 1   
    71    26    69 1   
    72    26    70 1   
    73    28    71 1   
    74    28    72 1   
    75    28    73 1   
    76    29    74 1   
    77    31    75 1   
    78    32    76 1   
    79    34    77 1   
@<TRIPOS>SUBSTRUCTURE
     1 E6P         1 TEMP              0 ****  ****    0 ROOT
