@<TRIPOS>MOLECULE
E6R
   53    55     1     0     0
SMALL
No Charge or Current Charge


@<TRIPOS>ATOM
      1 N1          -1.7080     0.1420    -0.0280 ns         1 E6R      -0.152000
      2 C4          -3.1280     0.1730    -0.0030 ca         1 E6R       0.049000
      3 C5          -3.7410     0.9880     0.9660 ca         1 E6R      -0.182500
      4 C6          -5.1400     1.0770     1.0570 ca         1 E6R       0.016500
      5 C7          -0.7970    -0.5930    -0.7750 c          1 E6R       0.658700
      6 C8           0.6240    -0.2500    -0.4540 cc         1 E6R      -0.244600
      7 C10          2.8940    -0.2590    -0.4310 cd         1 E6R      -0.171000
      8 C13          4.6060    -0.3570    -2.2090 ca         1 E6R      -0.100000
      9 C15          6.9710    -0.6270    -1.7640 ca         1 E6R      -0.107000
     10 C17          5.3690    -0.6620     0.0970 ca         1 E6R      -0.177300
     11 C21         -8.1230     1.8260    -0.8220 c3         1 E6R      -0.338100
     12 C22          2.7440     3.2500     0.6490 c3         1 E6R       0.143600
     13 C1          -5.9480     0.3420     0.1700 ca         1 E6R      -0.314500
     14 C2          -5.3470    -0.4720    -0.8090 ca         1 E6R       0.016500
     15 C3          -3.9460    -0.5550    -0.8940 ca         1 E6R      -0.182500
     16 O1          -1.1230    -1.4310    -1.6070 o          1 E6R      -0.568100
     17 C9           1.0130     0.7060     0.4530 cd         1 E6R      -0.143000
     18 N2           2.4070     0.7620     0.4060 na         1 E6R       0.056000
     19 C11          1.7900    -0.8260    -1.0300 cc         1 E6R      -0.033300
     20 C12          4.3070    -0.4370    -0.8320 ca         1 E6R       0.029000
     21 C14          5.9240    -0.4490    -2.6750 ca         1 E6R      -0.084000
     22 C16          6.6950    -0.7360    -0.3940 ca         1 E6R      -0.066000
     23 C19          1.7690    -1.9310    -2.0620 c3         1 E6R      -0.024800
     24 S1          -7.7440     0.4590     0.2720 sy         1 E6R       1.068500
     25 O2          -8.1150     0.8900     1.6260 o          1 E6R      -0.528000
     26 O3          -8.3330    -0.7410    -0.3350 o          1 E6R      -0.528000
     27 O4           3.5980     4.2280     1.2600 oh         1 E6R      -0.657000
     28 F1           5.4310     0.1760     2.3460 f          1 E6R      -0.112000
     29 F2           3.9170    -1.3310     1.9340 f          1 E6R      -0.112000
     30 F3           5.9920    -1.8940     2.0570 f          1 E6R      -0.112000
     31 H1          -1.2780     0.7810     0.6250 hn         1 E6R       0.152000
     32 H2          -3.1290     1.5610     1.6590 ha         1 E6R       0.134000
     33 H3          -5.5870     1.7180     1.8170 ha         1 E6R       0.135500
     34 H4           3.8090    -0.1790    -2.9260 ha         1 E6R       0.125000
     35 H5           7.9970    -0.6920    -2.1200 ha         1 E6R       0.124000
     36 H6           4.2530     1.7240     0.7230 h1         1 E6R       0.081700
     37 H7           3.1560     1.7100     2.1210 h1         1 E6R       0.081700
     38 H8          -7.7650     1.5700    -1.8250 h1         1 E6R       0.100367
     39 H9          -9.2080     1.9720    -0.8230 h1         1 E6R       0.100367
     40 H10         -7.6110     2.7170    -0.4450 h1         1 E6R       0.100367
     41 H11          2.7710     3.3520    -0.4440 h1         1 E6R       0.029700
     42 H12          1.7060     3.3970     0.9760 h1         1 E6R       0.029700
     43 H13         -5.9580    -1.0410    -1.5100 ha         1 E6R       0.135500
     44 H14         -3.5210    -1.1880    -1.6640 ha         1 E6R       0.134000
     45 H15          0.4320     1.3750     1.0780 h4         1 E6R       0.148000
     46 H16          6.1340    -0.3680    -3.7400 ha         1 E6R       0.123000
     47 H17          7.5250    -0.8970     0.2920 ha         1 E6R       0.136000
     48 H18          1.3950    -1.5620    -3.0240 hc         1 E6R       0.051700
     49 H19          2.7660    -2.3540    -2.2250 hc         1 E6R       0.051700
     50 H20          1.1290    -2.7600    -1.7380 hc         1 E6R       0.051700
     51 H21          3.2700     5.1140     0.9820 ho         1 E6R       0.454000
     52 C20          3.2080     1.8300     1.0330 c3         1 E6R       0.057600
     53 C18          5.1630    -0.9230     1.6070 c3         1 E6R       0.359300
@<TRIPOS>BOND
     1     1     2 1   
     2     1     5 1   
     3     1    31 1   
     4     2     3 ar  
     5     2    15 ar  
     6     3     4 ar  
     7     3    32 1   
     8     4    13 ar  
     9     4    33 1   
    10     5     6 1   
    11     5    16 2   
    12     6    17 2   
    13     6    19 1   
    14     7    18 1   
    15     7    19 2   
    16     7    20 1   
    17     8    20 ar  
    18     8    21 ar  
    19     8    34 1   
    20     9    21 ar  
    21     9    22 ar  
    22     9    35 1   
    23    10    20 ar  
    24    10    22 ar  
    25    10    53 1   
    26    11    24 1   
    27    11    38 1   
    28    11    39 1   
    29    11    40 1   
    30    12    27 1   
    31    12    41 1   
    32    12    42 1   
    33    12    52 1   
    34    13    14 ar  
    35    13    24 1   
    36    14    15 ar  
    37    14    43 1   
    38    15    44 1   
    39    17    18 1   
    40    17    45 1   
    41    18    52 1   
    42    19    23 1   
    43    21    46 1   
    44    22    47 1   
    45    23    48 1   
    46    23    49 1   
    47    23    50 1   
    48    24    25 2   
    49    24    26 2   
    50    27    51 1   
    51    28    53 1   
    52    29    53 1   
    53    30    53 1   
    54    36    52 1   
    55    37    52 1   
@<TRIPOS>SUBSTRUCTURE
     1 E6R         1 TEMP              0 ****  ****    0 ROOT
