@<TRIPOS>MOLECULE
E6R
   53    55     1     0     0
SMALL
abcg2


@<TRIPOS>ATOM
      1 N1          -1.7270     0.2070     0.1210 ns         1 E6R      -0.152000
      2 C4          -3.1100     0.1330     0.0960 ca         1 E6R       0.049000
      3 C5          -3.7870     0.6610     1.2040 ca         1 E6R      -0.182500
      4 C6          -5.1640     0.6520     1.2670 ca         1 E6R       0.016500
      5 C7          -0.8150    -0.3510    -0.7420 c          1 E6R       0.658700
      6 C8           0.5740     0.0320    -0.4910 cc         1 E6R      -0.244600
      7 C10          2.8120     0.0620    -0.5320 cd         1 E6R      -0.171000
      8 C13          4.8700     0.3310    -1.8660 ca         1 E6R      -0.100000
      9 C15          6.9660    -0.6410    -1.2240 ca         1 E6R      -0.107000
     10 C17          5.0150    -0.9640     0.1500 ca         1 E6R      -0.177300
     11 C21         -8.1080     1.7060    -0.3960 c3         1 E6R      -0.338100
     12 C22          3.2880     3.3880    -0.2900 c3         1 E6R       0.143600
     13 C1          -5.8920     0.1150     0.2110 ca         1 E6R      -0.314500
     14 C2          -5.2380    -0.4110    -0.8930 ca         1 E6R       0.016500
     15 C3          -3.8560    -0.4090    -0.9570 ca         1 E6R      -0.182500
     16 O1          -1.1360    -1.1060    -1.6430 o          1 E6R      -0.568100
     17 C9           1.0170     1.1500     0.1900 cd         1 E6R      -0.143000
     18 N2           2.3620     1.1630     0.1610 na         1 E6R       0.056000
     19 C11          1.7300    -0.6600    -0.9630 cc         1 E6R      -0.033300
     20 C12          4.2500    -0.1970    -0.7390 ca         1 E6R       0.029000
     21 C14          6.2180     0.1160    -2.1110 ca         1 E6R      -0.084000
     22 C16          6.3640    -1.1830    -0.0970 ca         1 E6R      -0.066000
     23 C19          1.7880    -1.9310    -1.7410 c3         1 E6R      -0.024800
     24 S1          -7.6560     0.1190     0.2700 sy         1 E6R       1.068500
     25 O2          -8.0750     0.0800     1.6700 o          1 E6R      -0.528000
     26 O3          -8.1500    -0.9140    -0.6400 o          1 E6R      -0.528000
     27 O4           4.0960     4.3700     0.3100 oh         1 E6R      -0.657000
     28 F1           3.7480    -0.6700     2.1210 f          1 E6R      -0.112000
     29 F2           3.4560    -2.4970     1.0250 f          1 E6R      -0.112000
     30 F3           5.2580    -2.1920     2.1490 f          1 E6R      -0.112000
     31 H1          -1.3470     0.6760     0.9280 hn         1 E6R       0.152000
     32 H2          -3.2240     1.0810     2.0280 ha         1 E6R       0.134000
     33 H3          -5.6580     1.0610     2.1380 ha         1 E6R       0.135500
     34 H4           4.2800     0.9110    -2.5640 ha         1 E6R       0.125000
     35 H5           8.0170    -0.8170    -1.4060 ha         1 E6R       0.124000
     36 H6           4.1720     1.8390     0.9190 h1         1 E6R       0.081700
     37 H7           2.7390     2.5700     1.6310 h1         1 E6R       0.081700
     38 H8          -7.7620     1.7800    -1.4240 h1         1 E6R       0.100367
     39 H9          -9.1950     1.7760    -0.3620 h1         1 E6R       0.100367
     40 H10         -7.6650     2.4920     0.2100 h1         1 E6R       0.100367
     41 H11          3.7150     3.0250    -1.2330 h1         1 E6R       0.029700
     42 H12          2.2820     3.7630    -0.5150 h1         1 E6R       0.029700
     43 H13         -5.7960    -0.8330    -1.7180 ha         1 E6R       0.135500
     44 H14         -3.3740    -0.8290    -1.8230 ha         1 E6R       0.134000
     45 H15          0.4710     1.9490     0.6690 h4         1 E6R       0.148000
     46 H16          6.6790     0.5370    -2.9950 ha         1 E6R       0.123000
     47 H17          6.9630    -1.7760     0.5790 ha         1 E6R       0.136000
     48 H18          1.3650    -1.8120    -2.7390 hc         1 E6R       0.051700
     49 H19          2.8170    -2.2680    -1.8560 hc         1 E6R       0.051700
     50 H20          1.2310    -2.7310    -1.2520 hc         1 E6R       0.051700
     51 H21          4.1550     5.1190    -0.2890 ho         1 E6R       0.454000
     52 C20          3.1810     2.2310     0.6930 c3         1 E6R       0.057600
     53 C18          4.3720    -1.5780     1.3590 c3         1 E6R       0.359300
@<TRIPOS>BOND
     1     1     2 1   
     2     1     5 1   
     3     1    31 1   
     4     2     3 ar  
     5     2    15 ar  
     6     3     4 ar  
     7     3    32 1   
     8     4    13 ar  
     9     4    33 1   
    10     5     6 1   
    11     5    16 2   
    12     6    17 2   
    13     6    19 1   
    14     7    18 1   
    15     7    19 2   
    16     7    20 1   
    17     8    20 ar  
    18     8    21 ar  
    19     8    34 1   
    20     9    21 ar  
    21     9    22 ar  
    22     9    35 1   
    23    10    20 ar  
    24    10    22 ar  
    25    10    53 1   
    26    11    24 1   
    27    11    38 1   
    28    11    39 1   
    29    11    40 1   
    30    12    27 1   
    31    12    41 1   
    32    12    42 1   
    33    12    52 1   
    34    13    14 ar  
    35    13    24 1   
    36    14    15 ar  
    37    14    43 1   
    38    15    44 1   
    39    17    18 1   
    40    17    45 1   
    41    18    52 1   
    42    19    23 1   
    43    21    46 1   
    44    22    47 1   
    45    23    48 1   
    46    23    49 1   
    47    23    50 1   
    48    24    25 2   
    49    24    26 2   
    50    27    51 1   
    51    28    53 1   
    52    29    53 1   
    53    30    53 1   
    54    36    52 1   
    55    37    52 1   
@<TRIPOS>SUBSTRUCTURE
     1 E6R         1 TEMP              0 ****  ****    0 ROOT
