@<TRIPOS>MOLECULE
E6S
   85    86     1     0     0
SMALL
bcc


@<TRIPOS>ATOM
      1 C2          27.3360     5.6690    15.7130 c3         1 E6S       0.023700
      2 C4          28.5280     5.9080    14.7780 c          1 E6S       0.654100
      3 C12         31.4310     8.1840    15.8180 c3         1 E6S      -0.054700
      4 C14         32.5610     8.9720    16.4910 c3         1 E6S      -0.075400
      5 C17         32.1590    10.3140    17.1020 c3         1 E6S      -0.071400
      6 C20         31.0820    10.2310    18.1830 c3         1 E6S      -0.074400
      7 C23         31.4480     9.3020    19.3360 c3         1 E6S      -0.075400
      8 C26         30.4660     9.3260    20.5050 c3         1 E6S      -0.072400
      9 C29         29.0230     8.9800    20.1440 c3         1 E6S      -0.073400
     10 C32         28.8840     7.6980    19.3340 c3         1 E6S      -0.075400
     11 C35         27.4240     7.2590    19.1740 c3         1 E6S      -0.157400
     12 C38         27.2900     6.2190    18.0840 c          1 E6S       0.672100
     13 C40         30.8840     8.9190    14.6000 c3         1 E6S      -0.094100
     14 C53         30.4650     1.6330    12.2090 c3         1 E6S       0.214100
     15 C56         30.6590     2.1930    10.8180 ca         1 E6S      -0.088300
     16 C57         31.7090     3.0540    10.5240 ca         1 E6S      -0.103000
     17 C59         31.8860     3.5830     9.2460 ca         1 E6S      -0.079300
     18 C60         31.0020     3.2050     8.2410 ca         1 E6S      -0.127000
     19 C62         29.9560     2.3310     8.5160 ca         1 E6S      -0.131000
     20 C64         29.7770     1.8370     9.7980 ca         1 E6S      -0.133000
     21 C66         32.9910     4.5800     8.9800 c3         1 E6S      -0.012400
     22 C68         34.3720     4.0020     9.2840 c3         1 E6S      -0.086100
     23 C7          30.9970     5.8910    14.6770 c3         1 E6S       0.047700
     24 C72         32.7550     5.8680     9.7700 c3         1 E6S      -0.086100
     25 C77         26.0110     5.6570    14.9700 c3         1 E6S      -0.091100
     26 C9          31.9560     6.7880    15.4680 c3         1 E6S      -0.093400
     27 N1          27.3600     6.6460    16.7950 n          1 E6S      -0.483800
     28 N5          29.7310     5.7760    15.3690 ns         1 E6S      -0.560900
     29 N51         31.2130     2.3500    13.2170 n7         1 E6S      -0.803200
     30 O39         27.1830     5.0320    18.3630 o          1 E6S      -0.602100
     31 O76         28.3790     6.1870    13.6000 o          1 E6S      -0.597100
     32 H1          27.4760     4.6870    16.1680 h1         1 E6S       0.097700
     33 H2          30.6190     8.0620    16.5460 hc         1 E6S       0.050700
     34 H3          33.0130     8.3470    17.2670 hc         1 E6S       0.036700
     35 H4          33.3520     9.1430    15.7520 hc         1 E6S       0.036700
     36 H5          33.0550    10.7720    17.5310 hc         1 E6S       0.040700
     37 H6          31.8250    10.9980    16.3170 hc         1 E6S       0.040700
     38 H7          30.9010    11.2370    18.5760 hc         1 E6S       0.037700
     39 H8          30.1320     9.9200    17.7350 hc         1 E6S       0.037700
     40 H9          31.5470     8.2750    18.9700 hc         1 E6S       0.037700
     41 H10         32.4410     9.5730    19.7090 hc         1 E6S       0.037700
     42 H11         30.8190     8.6260    21.2690 hc         1 E6S       0.040700
     43 H12         30.4830    10.3160    20.9720 hc         1 E6S       0.040700
     44 H13         28.5710     9.8000    19.5770 hc         1 E6S       0.038700
     45 H14         28.4380     8.8980    21.0640 hc         1 E6S       0.038700
     46 H15         29.4510     6.8870    19.7980 hc         1 E6S       0.047200
     47 H16         29.3320     7.8500    18.3480 hc         1 E6S       0.047200
     48 H17         26.7850     8.1250    18.9880 hc         1 E6S       0.067200
     49 H18         27.0700     6.8110    20.1030 hc         1 E6S       0.067200
     50 H19         30.5670     9.9310    14.8570 hc         1 E6S       0.039700
     51 H20         31.6450     8.9980    13.8190 hc         1 E6S       0.039700
     52 H21         30.0180     8.4170    14.1690 hc         1 E6S       0.039700
     53 H22         30.3810     4.1700    12.6580 h1         1 E6S       0.052700
     54 H23         29.6890     3.5080    14.1280 h1         1 E6S       0.052700
     55 H24         29.3840     1.5880    12.4180 h1         1 E6S       0.035200
     56 H25         30.8100     0.5950    12.2180 h1         1 E6S       0.035200
     57 H26         32.3820     3.3340    11.3250 ha         1 E6S       0.162000
     58 H27         31.1220     3.6030     7.2400 ha         1 E6S       0.125000
     59 H28         29.2700     2.0460     7.7270 ha         1 E6S       0.126000
     60 H29         28.9450     1.1740    10.0110 ha         1 E6S       0.123000
     61 H30         32.9610     4.8300     7.9140 hc         1 E6S       0.043700
     62 H31         34.5650     3.0960     8.7080 hc         1 E6S       0.034367
     63 H32         35.1520     4.7250     9.0380 hc         1 E6S       0.034367
     64 H33         34.4780     3.7560    10.3420 hc         1 E6S       0.034367
     65 H34         30.7940     6.3560    13.7110 h1         1 E6S       0.099700
     66 H35         31.7920     6.3150     9.5190 hc         1 E6S       0.034367
     67 H36         32.7640     5.6810    10.8460 hc         1 E6S       0.034367
     68 H37         33.5320     6.6040     9.5530 hc         1 E6S       0.034367
     69 H38         25.2060     5.4470    15.6720 hc         1 E6S       0.050033
     70 H39         25.7940     6.6040    14.4750 hc         1 E6S       0.050033
     71 H40         26.0040     4.8770    14.2100 hc         1 E6S       0.050033
     72 H41         27.0810     8.7050    17.1650 h1         1 E6S       0.044700
     73 H42         28.4460     8.3340    16.1150 h1         1 E6S       0.044700
     74 H43         26.7920     8.2010    15.5210 h1         1 E6S       0.044700
     75 H44         32.2500     6.2980    16.4030 hc         1 E6S       0.039700
     76 H45         32.8770     6.9320    14.8920 hc         1 E6S       0.039700
     77 H46         29.7600     5.4750    16.3310 hn         1 E6S       0.324500
     78 H47         31.2930     1.7720    14.0420 hn         1 E6S       0.371800
     79 H49         32.5020     4.2070    16.1080 ho         1 E6S       0.401500
     80 H50         33.3350     5.2920    13.9910 ho         1 E6S       0.401500
     81 C44         31.5960     4.4830    14.3880 c3         1 E6S       0.337600
     82 C81         27.4310     8.0360    16.3870 c3         1 E6S       0.082300
     83 C48         30.6280     3.6270    13.5720 c3         1 E6S       0.186800
     84 O45         31.8130     3.7800    15.5860 oh         1 E6S      -0.601300
     85 O46         32.7640     4.6040    13.6320 oh         1 E6S      -0.601300
@<TRIPOS>BOND
     1     1     2 1   
     2     1    25 1   
     3     1    27 1   
     4     1    32 1   
     5     2    28 1   
     6     2    31 2   
     7     3     4 1   
     8     3    13 1   
     9     3    26 1   
    10     3    33 1   
    11     4     5 1   
    12     4    34 1   
    13     4    35 1   
    14     5     6 1   
    15     5    36 1   
    16     5    37 1   
    17     6     7 1   
    18     6    38 1   
    19     6    39 1   
    20     7     8 1   
    21     7    40 1   
    22     7    41 1   
    23     8     9 1   
    24     8    42 1   
    25     8    43 1   
    26     9    10 1   
    27     9    44 1   
    28     9    45 1   
    29    10    11 1   
    30    10    46 1   
    31    10    47 1   
    32    11    12 1   
    33    11    48 1   
    34    11    49 1   
    35    12    27 1   
    36    12    30 2   
    37    13    50 1   
    38    13    51 1   
    39    13    52 1   
    40    14    15 1   
    41    14    29 1   
    42    14    55 1   
    43    14    56 1   
    44    15    16 ar  
    45    15    20 ar  
    46    16    17 ar  
    47    16    57 1   
    48    17    18 ar  
    49    17    21 1   
    50    18    19 ar  
    51    18    58 1   
    52    19    20 ar  
    53    19    59 1   
    54    20    60 1   
    55    21    22 1   
    56    21    24 1   
    57    21    61 1   
    58    22    62 1   
    59    22    63 1   
    60    22    64 1   
    61    23    26 1   
    62    23    28 1   
    63    23    65 1   
    64    23    81 1   
    65    24    66 1   
    66    24    67 1   
    67    24    68 1   
    68    25    69 1   
    69    25    70 1   
    70    25    71 1   
    71    26    75 1   
    72    26    76 1   
    73    27    82 1   
    74    28    77 1   
    75    29    78 1   
    76    29    83 1   
    77    53    83 1   
    78    54    83 1   
    79    72    82 1   
    80    73    82 1   
    81    74    82 1   
    82    79    84 1   
    83    80    85 1   
    84    81    83 1   
    85    81    84 1   
    86    81    85 1   
@<TRIPOS>SUBSTRUCTURE
     1 E6S         1 TEMP              0 ****  ****    0 ROOT
