@<TRIPOS>MOLECULE
E6S
   85    86     1     0     0
SMALL
No Charge or Current Charge


@<TRIPOS>ATOM
      1 C2          27.6160     5.8770    15.2090 c3         1 E6S       0.023700
      2 C4          28.9870     6.0340    14.4910 c          1 E6S       0.587100
      3 C12         31.4790     8.6140    16.3640 c3         1 E6S      -0.054700
      4 C14         32.3960     9.4160    17.3360 c3         1 E6S      -0.075400
      5 C17         31.7500    10.6100    18.0890 c3         1 E6S      -0.071400
      6 C20         30.5500    10.2640    19.0060 c3         1 E6S      -0.074400
      7 C23         30.8660     9.2180    20.1070 c3         1 E6S      -0.075400
      8 C26         29.7160     8.9690    21.1160 c3         1 E6S      -0.072400
      9 C29         28.3510     8.5710    20.5000 c3         1 E6S      -0.073400
     10 C32         28.3910     7.3150    19.5970 c3         1 E6S      -0.075400
     11 C35         27.0200     6.9890    18.9530 c3         1 E6S      -0.157400
     12 C38         27.1870     6.0960    17.7100 c          1 E6S       0.605100
     13 C40         30.9800     9.4880    15.1860 c3         1 E6S      -0.094100
     14 C53         31.5000     1.8920    12.4030 c3         1 E6S       0.214100
     15 C56         31.0360     2.4260    11.0500 ca         1 E6S      -0.088300
     16 C57         31.9620     2.5990    10.0030 ca         1 E6S      -0.085000
     17 C59         31.5500     3.0950     8.7480 ca         1 E6S      -0.079300
     18 C60         30.1920     3.4170     8.5520 ca         1 E6S      -0.109000
     19 C62         29.2640     3.2480     9.5930 ca         1 E6S      -0.113000
     20 C64         29.6830     2.7540    10.8380 ca         1 E6S      -0.115000
     21 C66         32.5560     3.2880     7.6100 c3         1 E6S      -0.012400
     22 C68         33.1940     1.9470     7.1850 c3         1 E6S      -0.086100
     23 C7          31.4720     6.3900    14.8880 c3         1 E6S       0.047700
     24 C72         33.6270     4.3400     7.9760 c3         1 E6S      -0.086100
     25 C77         26.4090     6.1110    14.2650 c3         1 E6S      -0.091100
     26 C9          32.2260     7.3330    15.8830 c3         1 E6S      -0.093400
     27 N1          27.4930     6.6980    16.4580 n          1 E6S      -0.416800
     28 N5          30.0760     6.1760    15.3310 ns         1 E6S      -0.493900
     29 N51         32.2790     2.9000    13.1480 n7         1 E6S      -0.858400
     30 O39         27.1140     4.8800    17.8210 o          1 E6S      -0.602100
     31 O76         29.1060     6.0860    13.2740 o          1 E6S      -0.597100
     32 H1          27.5930     4.8160    15.4850 h1         1 E6S       0.097700
     33 H2          30.6000     8.2860    16.9310 hc         1 E6S       0.050700
     34 H3          32.8210     8.7300    18.0790 hc         1 E6S       0.036700
     35 H4          33.2540     9.7980    16.7690 hc         1 E6S       0.036700
     36 H5          32.5250    11.0860    18.7030 hc         1 E6S       0.040700
     37 H6          31.4350    11.3720    17.3660 hc         1 E6S       0.040700
     38 H7          30.2060    11.1880    19.4870 hc         1 E6S       0.037700
     39 H8          29.7180     9.9140    18.3850 hc         1 E6S       0.037700
     40 H9          31.1420     8.2640    19.6420 hc         1 E6S       0.037700
     41 H10         31.7490     9.5510    20.6670 hc         1 E6S       0.037700
     42 H11         30.0300     8.1840    21.8150 hc         1 E6S       0.040700
     43 H12         29.5730     9.8750    21.7170 hc         1 E6S       0.040700
     44 H13         27.9580     9.4190    19.9270 hc         1 E6S       0.038700
     45 H14         27.6380     8.3970    21.3150 hc         1 E6S       0.038700
     46 H15         28.7390     6.4500    20.1760 hc         1 E6S       0.047200
     47 H16         29.1260     7.4700    18.7990 hc         1 E6S       0.047200
     48 H17         26.5550     7.9380    18.6680 hc         1 E6S       0.067200
     49 H18         26.3910     6.4800    19.6940 hc         1 E6S       0.067200
     50 H19         30.4110    10.3510    15.5490 hc         1 E6S       0.039700
     51 H20         31.8240     9.8580    14.5900 hc         1 E6S       0.039700
     52 H21         30.3150     8.9230    14.5230 hc         1 E6S       0.039700
     53 H22         31.4520     4.7840    12.5500 h1         1 E6S       0.052700
     54 H23         30.5430     3.9310    13.8000 h1         1 E6S       0.052700
     55 H24         30.6250     1.5790    12.9900 h1         1 E6S       0.035200
     56 H25         32.1110     0.9950    12.2370 h1         1 E6S       0.035200
     57 H26         33.0080     2.3520    10.1730 ha         1 E6S       0.144000
     58 H27         29.8520     3.8020     7.5930 ha         1 E6S       0.107000
     59 H28         28.2180     3.5010     9.4340 ha         1 E6S       0.108000
     60 H29         28.9580     2.6300    11.6390 ha         1 E6S       0.105000
     61 H30         32.0250     3.6740     6.7310 hc         1 E6S       0.043700
     62 H31         32.4180     1.2230     6.9090 hc         1 E6S       0.034367
     63 H32         33.8490     2.0900     6.3160 hc         1 E6S       0.034367
     64 H33         33.7930     1.5170     7.9960 hc         1 E6S       0.034367
     65 H34         31.4220     6.9270    13.9300 h1         1 E6S       0.099700
     66 H35         33.1530     5.2900     8.2510 hc         1 E6S       0.034367
     67 H36         34.2410     4.0050     8.8200 hc         1 E6S       0.034367
     68 H37         34.2910     4.5270     7.1230 hc         1 E6S       0.034367
     69 H38         25.4670     5.9550    14.8030 hc         1 E6S       0.050033
     70 H39         26.4120     7.1300    13.8620 hc         1 E6S       0.050033
     71 H40         26.4350     5.4100    13.4220 hc         1 E6S       0.050033
     72 H41         26.5310     8.5910    16.4100 h1         1 E6S       0.044700
     73 H42         28.2060     8.6250    17.0350 h1         1 E6S       0.044700
     74 H43         27.9120     8.4400    15.2950 h1         1 E6S       0.044700
     75 H44         32.4990     6.7570    16.7750 hc         1 E6S       0.039700
     76 H45         33.1690     7.6510    15.4210 hc         1 E6S       0.039700
     77 H46         29.8750     6.1560    16.3240 hn         1 E6S       0.324500
     78 H47         32.5440     2.4970    14.0560 hn         1 E6S       0.427000
     79 H49         32.2670     4.8680    16.5190 ho         1 E6S       0.440500
     80 H50         33.8770     6.0720    14.7730 ho         1 E6S       0.440500
     81 C44         32.2430     5.0400    14.5850 c3         1 E6S       0.384000
     82 C81         27.5390     8.1740    16.2920 c3         1 E6S       0.082300
     83 C48         31.5580     4.1730    13.4570 c3         1 E6S       0.186800
     84 O45         32.3380     4.2490    15.7660 oh         1 E6S      -0.663500
     85 O46         33.5910     5.3190    14.2210 oh         1 E6S      -0.663500
@<TRIPOS>BOND
     1     1     2 1   
     2     1    25 1   
     3     1    27 1   
     4     1    32 1   
     5     2    28 1   
     6     2    31 2   
     7     3     4 1   
     8     3    13 1   
     9     3    26 1   
    10     3    33 1   
    11     4     5 1   
    12     4    34 1   
    13     4    35 1   
    14     5     6 1   
    15     5    36 1   
    16     5    37 1   
    17     6     7 1   
    18     6    38 1   
    19     6    39 1   
    20     7     8 1   
    21     7    40 1   
    22     7    41 1   
    23     8     9 1   
    24     8    42 1   
    25     8    43 1   
    26     9    10 1   
    27     9    44 1   
    28     9    45 1   
    29    10    11 1   
    30    10    46 1   
    31    10    47 1   
    32    11    12 1   
    33    11    48 1   
    34    11    49 1   
    35    12    27 1   
    36    12    30 2   
    37    13    50 1   
    38    13    51 1   
    39    13    52 1   
    40    14    15 1   
    41    14    29 1   
    42    14    55 1   
    43    14    56 1   
    44    15    16 ar  
    45    15    20 ar  
    46    16    17 ar  
    47    16    57 1   
    48    17    18 ar  
    49    17    21 1   
    50    18    19 ar  
    51    18    58 1   
    52    19    20 ar  
    53    19    59 1   
    54    20    60 1   
    55    21    22 1   
    56    21    24 1   
    57    21    61 1   
    58    22    62 1   
    59    22    63 1   
    60    22    64 1   
    61    23    26 1   
    62    23    28 1   
    63    23    65 1   
    64    23    81 1   
    65    24    66 1   
    66    24    67 1   
    67    24    68 1   
    68    25    69 1   
    69    25    70 1   
    70    25    71 1   
    71    26    75 1   
    72    26    76 1   
    73    27    82 1   
    74    28    77 1   
    75    29    78 1   
    76    29    83 1   
    77    53    83 1   
    78    54    83 1   
    79    72    82 1   
    80    73    82 1   
    81    74    82 1   
    82    79    84 1   
    83    80    85 1   
    84    81    83 1   
    85    81    84 1   
    86    81    85 1   
@<TRIPOS>SUBSTRUCTURE
     1 E6S         1 TEMP              0 ****  ****    0 ROOT
