@<TRIPOS>MOLECULE
E6V
   95    97     1     0     0
SMALL
No Charge or Current Charge


@<TRIPOS>ATOM
      1 C2          27.4000     5.5730    15.1410 c3         1 E6V       0.017700
      2 C7          31.2570     5.5400    14.5730 c3         1 E6V       0.077700
      3 C9          32.1880     6.4640    15.4130 c3         1 E6V      -0.091400
      4 C12         31.6680     7.8920    15.7550 c3         1 E6V      -0.054700
      5 C14         32.7470     8.6540    16.5820 c3         1 E6V      -0.075400
      6 C20         31.1450     9.9460    18.2190 c3         1 E6V      -0.074400
      7 C32         28.6540     7.4090    19.2680 c3         1 E6V      -0.074400
      8 C35         27.2140     7.1980    18.7390 c3         1 E6V      -0.158400
      9 C17         32.3210    10.0080    17.2120 c3         1 E6V      -0.071400
     10 C23         31.3840     9.0000    19.4240 c3         1 E6V      -0.076400
     11 C26         30.2740     9.0330    20.5070 c3         1 E6V      -0.072400
     12 C29         28.8340     8.7570    20.0070 c3         1 E6V      -0.074400
     13 C38         27.1830     6.1470    17.6130 c          1 E6V       0.601100
     14 C4          28.7300     5.4420    14.3430 c          1 E6V       0.588100
     15 C40         31.2370     8.6830    14.4940 c3         1 E6V      -0.092100
     16 C44         31.8200     4.0820    14.4820 c3         1 E6V       0.164300
     17 C48         30.9860     3.1100    13.6040 c3         1 E6V       0.163800
     18 C77         26.1780     5.8670    14.2340 c3         1 E6V      -0.094100
     19 C83         31.2930     0.9990    12.1980 c6         1 E6V       0.242800
     20 C84         30.0150     0.2620    12.6530 c6         1 E6V      -0.142400
     21 C85         29.3290    -0.4520    11.4640 c6         1 E6V       0.197000
     22 C86         27.9720    -1.0730    11.8920 c3         1 E6V      -0.100100
     23 C87         30.2060    -1.5730    10.8300 c3         1 E6V      -0.100100
     24 C89         29.9610     1.4490    10.0610 ca         1 E6V       0.147100
     25 C90         30.6900     3.1130     8.4370 ca         1 E6V      -0.070000
     26 C91         29.7620     2.1480     8.8610 ca         1 E6V      -0.154000
     27 C92         32.0280     2.6860    10.4210 ca         1 E6V      -0.045000
     28 C93         31.8350     3.3840     9.2120 ca         1 E6V      -0.118300
     29 C94         31.0870     1.7330    10.8670 ca         1 E6V      -0.167300
     30 C95         32.8560     4.4330     8.7650 c3         1 E6V      -0.008400
     31 C96         33.4780     4.0780     7.3960 c3         1 E6V      -0.084100
     32 C97         32.2390     5.8490     8.7630 c3         1 E6V      -0.084100
     33 N1          27.4730     6.5470    16.2800 n          1 E6V      -0.413800
     34 N5          29.8800     5.5700    15.0990 ns         1 E6V      -0.499900
     35 N82         31.7930     1.8980    13.2650 n7         1 E6V      -0.863400
     36 O39         26.9650     4.9740    17.8850 o          1 E6V      -0.600100
     37 O46         33.1450     4.0640    13.9410 oh         1 E6V      -0.638000
     38 O76         28.7710     5.2950    13.1290 o          1 E6V      -0.599100
     39 O88         29.0260     0.5000    10.4250 os         1 E6V      -0.353100
     40 H1          27.2480     4.5680    15.5510 h1         1 E6V       0.097700
     41 H2          31.2330     5.9420    13.5510 h1         1 E6V       0.095700
     42 H3          32.4110     5.9500    16.3570 hc         1 E6V       0.044200
     43 H4          33.1450     6.5620    14.8880 hc         1 E6V       0.044200
     44 H5          30.7840     7.7710    16.3910 hc         1 E6V       0.044700
     45 H6          33.1150     8.0020    17.3830 hc         1 E6V       0.037700
     46 H7          33.6140     8.8390    15.9360 hc         1 E6V       0.037700
     47 H8          30.9610    10.9590    18.5980 hc         1 E6V       0.035700
     48 H9          30.2350     9.6490    17.6850 hc         1 E6V       0.035700
     49 H10         28.9250     6.5800    19.9330 hc         1 E6V       0.047700
     50 H11         29.3490     7.3690    18.4220 hc         1 E6V       0.047700
     51 H12         26.8580     8.1600    18.3570 hc         1 E6V       0.066700
     52 H13         26.5750     6.8730    19.5680 hc         1 E6V       0.066700
     53 H14         33.1910    10.4340    17.7270 hc         1 E6V       0.040200
     54 H15         32.0690    10.7200    16.4170 hc         1 E6V       0.040200
     55 H16         31.5000     7.9700    19.0690 hc         1 E6V       0.038200
     56 H17         32.3360     9.2680    19.9000 hc         1 E6V       0.038200
     57 H18         30.5250     8.3010    21.2850 hc         1 E6V       0.040700
     58 H19         30.2890    10.0160    20.9950 hc         1 E6V       0.040700
     59 H20         28.5210     9.5770    19.3500 hc         1 E6V       0.038200
     60 H21         28.1560     8.7800    20.8690 hc         1 E6V       0.038200
     61 H22         30.8250     9.6620    14.7650 hc         1 E6V       0.037700
     62 H23         32.0900     8.8420    13.8230 hc         1 E6V       0.037700
     63 H24         30.4580     8.1510    13.9370 hc         1 E6V       0.037700
     64 H25         31.8470     3.6650    15.4970 h1         1 E6V       0.021700
     65 H26         30.6990     3.6420    12.6880 h1         1 E6V       0.053200
     66 H27         30.0630     2.8420    14.1360 h1         1 E6V       0.053200
     67 H28         25.2610     5.9190    14.8330 hc         1 E6V       0.049700
     68 H29         26.2970     6.8180    13.7020 hc         1 E6V       0.049700
     69 H30         26.0490     5.0730    13.4890 hc         1 E6V       0.049700
     70 H31         28.4700     8.4120    16.5740 h1         1 E6V       0.045367
     71 H32         28.0480     8.0600    14.8860 h1         1 E6V       0.045367
     72 H33         26.7700     8.5370    16.0320 h1         1 E6V       0.045367
     73 H34         32.0680     0.2380    12.0220 h1         1 E6V       0.061700
     74 H35         29.3000     0.9730    13.0860 hc         1 E6V       0.056700
     75 H36         30.2580    -0.4590    13.4450 hc         1 E6V       0.056700
     76 H37         28.1120    -1.8400    12.6630 hc         1 E6V       0.045867
     77 H38         27.2990    -0.3110    12.3030 hc         1 E6V       0.045867
     78 H39         27.4600    -1.5440    11.0440 hc         1 E6V       0.045867
     79 H40         30.4730    -2.3330    11.5740 hc         1 E6V       0.045867
     80 H41         29.6740    -2.0810    10.0160 hc         1 E6V       0.045867
     81 H42         31.1390    -1.1810    10.4100 hc         1 E6V       0.045867
     82 H43         30.5170     3.6450     7.5050 ha         1 E6V       0.110000
     83 H44         28.8860     1.9350     8.2530 ha         1 E6V       0.122000
     84 H45         32.9070     2.8920    11.0270 ha         1 E6V       0.138000
     85 H46         33.6830     4.4530     9.4860 hc         1 E6V       0.051700
     86 H47         33.9220     3.0750     7.4260 hc         1 E6V       0.032367
     87 H48         32.7250     4.0970     6.5990 hc         1 E6V       0.032367
     88 H49         34.2690     4.7910     7.1350 hc         1 E6V       0.032367
     89 H50         31.8310     6.0910     9.7520 hc         1 E6V       0.032367
     90 H51         32.9980     6.6010     8.5150 hc         1 E6V       0.032367
     91 H52         31.4280     5.9260     8.0290 hc         1 E6V       0.032367
     92 H53         29.7440     5.7250    16.0900 hn         1 E6V       0.317500
     93 H54         31.9170     1.3410    14.1190 hn         1 E6V       0.408000
     94 H56         33.1460     3.2020    13.4560 ho         1 E6V       0.436000
     95 C81         27.7050     7.9720    15.9250 c3         1 E6V       0.078300
@<TRIPOS>BOND
     1     1    14 1   
     2     1    18 1   
     3     1    33 1   
     4     1    40 1   
     5     2     3 1   
     6     2    16 1   
     7     2    34 1   
     8     2    41 1   
     9     3     4 1   
    10     3    42 1   
    11     3    43 1   
    12     4     5 1   
    13     4    15 1   
    14     4    44 1   
    15     5     9 1   
    16     5    45 1   
    17     5    46 1   
    18     6     9 1   
    19     6    10 1   
    20     6    47 1   
    21     6    48 1   
    22     7     8 1   
    23     7    12 1   
    24     7    49 1   
    25     7    50 1   
    26     8    13 1   
    27     8    51 1   
    28     8    52 1   
    29     9    53 1   
    30     9    54 1   
    31    10    11 1   
    32    10    55 1   
    33    10    56 1   
    34    11    12 1   
    35    11    57 1   
    36    11    58 1   
    37    12    59 1   
    38    12    60 1   
    39    13    33 1   
    40    13    36 2   
    41    14    34 1   
    42    14    38 2   
    43    15    61 1   
    44    15    62 1   
    45    15    63 1   
    46    16    17 1   
    47    16    37 1   
    48    16    64 1   
    49    17    35 1   
    50    17    65 1   
    51    17    66 1   
    52    18    67 1   
    53    18    68 1   
    54    18    69 1   
    55    19    20 1   
    56    19    29 1   
    57    19    35 1   
    58    19    73 1   
    59    20    21 1   
    60    20    74 1   
    61    20    75 1   
    62    21    22 1   
    63    21    23 1   
    64    21    39 1   
    65    22    76 1   
    66    22    77 1   
    67    22    78 1   
    68    23    79 1   
    69    23    80 1   
    70    23    81 1   
    71    24    26 ar  
    72    24    29 ar  
    73    24    39 1   
    74    25    26 ar  
    75    25    28 ar  
    76    25    82 1   
    77    26    83 1   
    78    27    28 ar  
    79    27    29 ar  
    80    27    84 1   
    81    28    30 1   
    82    30    31 1   
    83    30    32 1   
    84    30    85 1   
    85    31    86 1   
    86    31    87 1   
    87    31    88 1   
    88    32    89 1   
    89    32    90 1   
    90    32    91 1   
    91    33    95 1   
    92    34    92 1   
    93    35    93 1   
    94    37    94 1   
    95    70    95 1   
    96    71    95 1   
    97    72    95 1   
@<TRIPOS>SUBSTRUCTURE
     1 E6V         1 TEMP              0 ****  ****    0 ROOT
