@<TRIPOS>MOLECULE
E6V
   95    97     1     0     0
SMALL
abcg2


@<TRIPOS>ATOM
      1 C2          27.3650     5.1900    15.9070 c3         1 E6V       0.017700
      2 C7          30.8210     5.7240    14.3740 c3         1 E6V       0.077700
      3 C9          31.7590     6.7420    15.0250 c3         1 E6V      -0.091400
      4 C12         31.1320     8.0770    15.4320 c3         1 E6V      -0.054700
      5 C14         32.2370     8.9830    15.9900 c3         1 E6V      -0.075400
      6 C20         30.9010    10.0300    17.9290 c3         1 E6V      -0.074400
      7 C32         29.2630     7.2110    19.4340 c3         1 E6V      -0.074400
      8 C35         27.8170     6.6970    19.3680 c3         1 E6V      -0.158400
      9 C17         31.7690    10.2580    16.6910 c3         1 E6V      -0.071400
     10 C23         31.5730     9.1710    18.9940 c3         1 E6V      -0.076400
     11 C26         30.7990     9.0590    20.3070 c3         1 E6V      -0.072400
     12 C29         29.3700     8.5370    20.1750 c3         1 E6V      -0.074400
     13 C38         27.6570     5.6570    18.2820 c          1 E6V       0.601100
     14 C4          28.3930     5.4470    14.7970 c          1 E6V       0.588100
     15 C40         30.4020     8.7450    14.2710 c3         1 E6V      -0.092100
     16 C44         31.5530     4.3910    14.0940 c3         1 E6V       0.164300
     17 C48         30.6900     3.4170    13.3050 c3         1 E6V       0.163800
     18 C77         25.9360     5.2260    15.3910 c3         1 E6V      -0.094100
     19 C83         30.8400     1.2510    12.1390 c6         1 E6V       0.242800
     20 C84         29.3510     0.9180    12.2340 c6         1 E6V      -0.142400
     21 C85         28.8870     0.0740    11.0510 c6         1 E6V       0.197000
     22 C86         27.3850    -0.1510    11.1140 c3         1 E6V      -0.100100
     23 C87         29.6160    -1.2640    10.9640 c3         1 E6V      -0.100100
     24 C89         30.2630     1.5010     9.6960 ca         1 E6V       0.147100
     25 C90         31.6810     2.7410     8.1920 ca         1 E6V      -0.070000
     26 C91         30.5490     1.9790     8.4170 ca         1 E6V      -0.154000
     27 C92         32.2630     2.5500    10.4930 ca         1 E6V      -0.045000
     28 C93         32.5600     3.0460     9.2320 ca         1 E6V      -0.118300
     29 C94         31.1320     1.7770    10.7510 ca         1 E6V      -0.167300
     30 C95         33.7730     3.9200     9.0060 c3         1 E6V      -0.008400
     31 C96         34.7030     3.3460     7.9380 c3         1 E6V      -0.084100
     32 C97         33.3570     5.3500     8.6580 c3         1 E6V      -0.084100
     33 N1          27.5770     6.1200    17.0050 n          1 E6V      -0.413800
     34 N5          29.6660     5.5000    15.2220 ns         1 E6V      -0.499900
     35 N82         31.3560     2.1360    13.1650 n7         1 E6V      -0.863400
     36 O39         27.6600     4.4610    18.5420 o          1 E6V      -0.600100
     37 O46         32.7320     4.6180    13.3570 oh         1 E6V      -0.638000
     38 O76         28.0610     5.5680    13.6280 o          1 E6V      -0.599100
     39 O88         29.1140     0.8000     9.8310 os         1 E6V      -0.353100
     40 H1          27.5690     4.1890    16.2920 h1         1 E6V       0.097700
     41 H2          30.4570     6.1220    13.4250 h1         1 E6V       0.095700
     42 H3          32.2200     6.2900    15.9130 hc         1 E6V       0.044200
     43 H4          32.5740     6.9510    14.3260 hc         1 E6V       0.044200
     44 H5          30.4030     7.8840    16.2270 hc         1 E6V       0.044700
     45 H6          32.8570     8.4030    16.6810 hc         1 E6V       0.037700
     46 H7          32.9010     9.2610    15.1640 hc         1 E6V       0.037700
     47 H8          30.6400    11.0020    18.3610 hc         1 E6V       0.035700
     48 H9          29.9500     9.5830    17.6280 hc         1 E6V       0.035700
     49 H10         29.8910     6.4570    19.9150 hc         1 E6V       0.047700
     50 H11         29.6640     7.3270    18.4240 hc         1 E6V       0.047700
     51 H12         27.1260     7.5290    19.2180 hc         1 E6V       0.066700
     52 H13         27.5470     6.2360    20.3180 hc         1 E6V       0.066700
     53 H14         32.6550    10.8280    16.9860 hc         1 E6V       0.040200
     54 H15         31.2250    10.8950    15.9890 hc         1 E6V       0.040200
     55 H16         31.7610     8.1690    18.5980 hc         1 E6V       0.038200
     56 H17         32.5610     9.5880    19.2110 hc         1 E6V       0.038200
     57 H18         31.3560     8.4050    20.9850 hc         1 E6V       0.040700
     58 H19         30.7650    10.0410    20.7910 hc         1 E6V       0.040700
     59 H20         28.7470     9.2800    19.6660 hc         1 E6V       0.038200
     60 H21         28.9390     8.4270    21.1750 hc         1 E6V       0.038200
     61 H22         30.0290     9.7320    14.5480 hc         1 E6V       0.037700
     62 H23         31.0690     8.8700    13.4140 hc         1 E6V       0.037700
     63 H24         29.5410     8.1650    13.9360 hc         1 E6V       0.037700
     64 H25         31.7870     3.9350    15.0700 h1         1 E6V       0.021700
     65 H26         30.5100     3.8350    12.3100 h1         1 E6V       0.053200
     66 H27         29.7110     3.3310    13.7880 h1         1 E6V       0.053200
     67 H28         25.2500     4.9940    16.2060 hc         1 E6V       0.049700
     68 H29         25.6660     6.2010    14.9860 hc         1 E6V       0.049700
     69 H30         25.7860     4.4850    14.6090 hc         1 E6V       0.049700
     70 H31         28.0470     8.1650    17.2710 h1         1 E6V       0.045367
     71 H32         27.6170     7.7040    15.6460 h1         1 E6V       0.045367
     72 H33         26.3560     7.8540    16.8660 h1         1 E6V       0.045367
     73 H34         31.3980     0.3170    12.2680 h1         1 E6V       0.061700
     74 H35         28.7580     1.8380    12.2540 hc         1 E6V       0.056700
     75 H36         29.1450     0.3850    13.1650 hc         1 E6V       0.056700
     76 H37         27.1330    -0.7460    11.9910 hc         1 E6V       0.045867
     77 H38         26.8450     0.7950    11.1810 hc         1 E6V       0.045867
     78 H39         27.0300    -0.6890    10.2330 hc         1 E6V       0.045867
     79 H40         29.4980    -1.8270    11.8910 hc         1 E6V       0.045867
     80 H41         29.2070    -1.8700    10.1530 hc         1 E6V       0.045867
     81 H42         30.6850    -1.1480    10.7810 hc         1 E6V       0.045867
     82 H43         31.8730     3.1020     7.1880 ha         1 E6V       0.110000
     83 H44         29.8710     1.7530     7.6030 ha         1 E6V       0.122000
     84 H45         32.9070     2.7950    11.3290 ha         1 E6V       0.138000
     85 H46         34.3290     3.9550     9.9480 hc         1 E6V       0.051700
     86 H47         35.0420     2.3440     8.2030 hc         1 E6V       0.032367
     87 H48         34.2060     3.2840     6.9680 hc         1 E6V       0.032367
     88 H49         35.5850     3.9760     7.8140 hc         1 E6V       0.032367
     89 H50         32.7320     5.7820     9.4410 hc         1 E6V       0.032367
     90 H51         34.2320     5.9920     8.5350 hc         1 E6V       0.032367
     91 H52         32.7910     5.3800     7.7250 hc         1 E6V       0.032367
     92 H53         29.8410     5.3680    16.2070 hn         1 E6V       0.317500
     93 H54         31.3480     1.6470    14.0520 hn         1 E6V       0.408000
     94 H56         33.4200     4.9130    13.9590 ho         1 E6V       0.436000
     95 C81         27.3830     7.5270    16.6940 c3         1 E6V       0.078300
@<TRIPOS>BOND
     1     1    14 1   
     2     1    18 1   
     3     1    33 1   
     4     1    40 1   
     5     2     3 1   
     6     2    16 1   
     7     2    34 1   
     8     2    41 1   
     9     3     4 1   
    10     3    42 1   
    11     3    43 1   
    12     4     5 1   
    13     4    15 1   
    14     4    44 1   
    15     5     9 1   
    16     5    45 1   
    17     5    46 1   
    18     6     9 1   
    19     6    10 1   
    20     6    47 1   
    21     6    48 1   
    22     7     8 1   
    23     7    12 1   
    24     7    49 1   
    25     7    50 1   
    26     8    13 1   
    27     8    51 1   
    28     8    52 1   
    29     9    53 1   
    30     9    54 1   
    31    10    11 1   
    32    10    55 1   
    33    10    56 1   
    34    11    12 1   
    35    11    57 1   
    36    11    58 1   
    37    12    59 1   
    38    12    60 1   
    39    13    33 1   
    40    13    36 2   
    41    14    34 1   
    42    14    38 2   
    43    15    61 1   
    44    15    62 1   
    45    15    63 1   
    46    16    17 1   
    47    16    37 1   
    48    16    64 1   
    49    17    35 1   
    50    17    65 1   
    51    17    66 1   
    52    18    67 1   
    53    18    68 1   
    54    18    69 1   
    55    19    20 1   
    56    19    29 1   
    57    19    35 1   
    58    19    73 1   
    59    20    21 1   
    60    20    74 1   
    61    20    75 1   
    62    21    22 1   
    63    21    23 1   
    64    21    39 1   
    65    22    76 1   
    66    22    77 1   
    67    22    78 1   
    68    23    79 1   
    69    23    80 1   
    70    23    81 1   
    71    24    26 ar  
    72    24    29 ar  
    73    24    39 1   
    74    25    26 ar  
    75    25    28 ar  
    76    25    82 1   
    77    26    83 1   
    78    27    28 ar  
    79    27    29 ar  
    80    27    84 1   
    81    28    30 1   
    82    30    31 1   
    83    30    32 1   
    84    30    85 1   
    85    31    86 1   
    86    31    87 1   
    87    31    88 1   
    88    32    89 1   
    89    32    90 1   
    90    32    91 1   
    91    33    95 1   
    92    34    92 1   
    93    35    93 1   
    94    37    94 1   
    95    70    95 1   
    96    71    95 1   
    97    72    95 1   
@<TRIPOS>SUBSTRUCTURE
     1 E6V         1 TEMP              0 ****  ****    0 ROOT
