@<TRIPOS>MOLECULE
E6Y
   89    91     1     0     0
SMALL
No Charge or Current Charge


@<TRIPOS>ATOM
      1 C2          27.2240     5.9870    15.4940 c3         1 E6Y       0.020700
      2 C4          28.5140     6.0630    14.6260 c          1 E6Y       0.589100
      3 C12         31.2680     8.6090    16.1870 c3         1 E6Y      -0.058700
      4 C14         32.2890     9.3630    17.0890 c3         1 E6Y      -0.072400
      5 C17         31.7390    10.5540    17.9210 c3         1 E6Y      -0.070400
      6 C20         30.5910    10.2220    18.9090 c3         1 E6Y      -0.073400
      7 C23         30.8960     9.0450    19.8700 c3         1 E6Y      -0.070400
      8 C26         29.8640     8.8550    21.0100 c3         1 E6Y      -0.074400
      9 C29         28.4000     8.6300    20.5690 c3         1 E6Y       0.160600
     10 C33         27.0130     7.1090    19.2860 c3         1 E6Y       0.081600
     11 C36         26.9990     6.2020    18.0240 c          1 E6Y       0.604100
     12 C38         30.7140     9.5130    15.0570 c3         1 E6Y      -0.093100
     13 C42         31.7270     5.0220    14.4400 c3         1 E6Y       0.162300
     14 C46         30.9300     4.0710    13.5070 c3         1 E6Y       0.167800
     15 C51         31.2030     2.0790    12.0580 cx         1 E6Y       0.189500
     16 C52         31.7190     0.6620    12.0600 cx         1 E6Y      -0.145900
     17 C55         30.3440     0.9630    12.6020 cx         1 E6Y      -0.145900
     18 C58         30.8740     2.7510    10.7480 ca         1 E6Y      -0.044300
     19 C59         31.8970     3.0060     9.8160 ca         1 E6Y      -0.086000
     20 C61         31.6320     3.6380     8.5770 ca         1 E6Y      -0.069300
     21 C62         30.2940     4.0140     8.3000 ca         1 E6Y      -0.108000
     22 C64         29.2700     3.7670     9.2290 ca         1 E6Y      -0.118000
     23 C66         29.5560     3.1400    10.4490 ca         1 E6Y      -0.114000
     24 C68         32.8000     3.8940     7.5860 c3         1 E6Y       0.003300
     25 C69         33.4550     2.5390     7.2040 c3         1 E6Y      -0.084100
     26 C7          31.0290     6.3900    14.7400 c3         1 E6Y       0.075700
     27 C73         32.3430     4.5900     6.2730 c3         1 E6Y      -0.084100
     28 C77         33.8580     4.8040     8.2660 c3         1 E6Y      -0.084100
     29 C82         25.9430     6.3330    14.6940 c3         1 E6Y      -0.094100
     30 C9          31.9130     7.3010    15.6430 c3         1 E6Y      -0.089400
     31 N1          27.2960     6.7870    16.7620 n          1 E6Y      -0.402800
     32 N49         31.8030     2.9580    13.0350 n7         1 E6Y      -0.841400
     33 N5          29.6900     6.2160    15.3330 ns         1 E6Y      -0.499900
     34 O32         28.3530     7.5290    19.6460 os         1 E6Y      -0.453000
     35 O37         26.7330     5.0080    18.1170 o          1 E6Y      -0.597100
     36 O44         33.0060     5.2120    13.8220 oh         1 E6Y      -0.642000
     37 O81         28.4970     6.0500    13.4020 o          1 E6Y      -0.596100
     38 H1          27.1550     4.9250    15.7580 h1         1 E6Y       0.091700
     39 H2          30.4250     8.3150    16.8220 hc         1 E6Y       0.054700
     40 H3          32.7540     8.6500    17.7800 hc         1 E6Y       0.037200
     41 H4          33.1060     9.7350    16.4580 hc         1 E6Y       0.037200
     42 H5          32.5720    10.9780    18.4940 hc         1 E6Y       0.038700
     43 H6          31.4060    11.3510    17.2460 hc         1 E6Y       0.038700
     44 H7          30.3790    11.1200    19.5020 hc         1 E6Y       0.035700
     45 H8          29.6790    10.0070    18.3420 hc         1 E6Y       0.035700
     46 H9          30.9640     8.1120    19.2970 hc         1 E6Y       0.044700
     47 H10         31.8820     9.2040    20.3230 hc         1 E6Y       0.044700
     48 H11         30.1760     8.0020    21.6250 hc         1 E6Y       0.046700
     49 H12         29.8950     9.7330    21.6670 hc         1 E6Y       0.046700
     50 H13         28.0120     9.5420    20.0970 h1         1 E6Y       0.024700
     51 H14         27.7890     8.4190    21.4560 h1         1 E6Y       0.024700
     52 H15         26.3750     7.9770    19.0760 h1         1 E6Y       0.050200
     53 H16         26.5510     6.5540    20.1120 h1         1 E6Y       0.050200
     54 H17         30.2170    10.3980    15.4690 hc         1 E6Y       0.037033
     55 H18         31.5210     9.8480    14.3950 hc         1 E6Y       0.037033
     56 H19         29.9720     8.9810    14.4500 hc         1 E6Y       0.037033
     57 H20         31.8690     4.4990    15.3950 h1         1 E6Y       0.022700
     58 H21         30.5690     4.6560    12.6510 h1         1 E6Y       0.052200
     59 H22         30.0520     3.6820    14.0410 h1         1 E6Y       0.052200
     60 H23         31.7830     0.1470    11.1050 hc         1 E6Y       0.074700
     61 H24         32.5000     0.3990    12.7700 hc         1 E6Y       0.074700
     62 H25         29.4910     0.6420    12.0100 hc         1 E6Y       0.074700
     63 H26         30.1960     0.9060    13.6770 hc         1 E6Y       0.074700
     64 H27         32.9100     2.7060    10.0710 ha         1 E6Y       0.146000
     65 H28         30.0210     4.5030     7.3700 ha         1 E6Y       0.110000
     66 H29         28.2490     4.0670     9.0020 ha         1 E6Y       0.107000
     67 H30         28.7570     2.9610    11.1640 ha         1 E6Y       0.105000
     68 H31         33.8860     2.0360     8.0770 hc         1 E6Y       0.035033
     69 H32         32.7140     1.8640     6.7570 hc         1 E6Y       0.035033
     70 H33         34.2630     2.6840     6.4760 hc         1 E6Y       0.035033
     71 H34         30.9020     6.9070    13.7780 h1         1 E6Y       0.094700
     72 H35         31.8970     5.5710     6.4790 hc         1 E6Y       0.035033
     73 H36         33.1940     4.7520     5.5990 hc         1 E6Y       0.035033
     74 H37         31.6100     3.9780     5.7340 hc         1 E6Y       0.035033
     75 H38         34.2930     4.3290     9.1520 hc         1 E6Y       0.035033
     76 H39         34.6810     5.0310     7.5770 hc         1 E6Y       0.035033
     77 H40         33.4070     5.7540     8.5790 hc         1 E6Y       0.035033
     78 H41         25.0550     6.2380    15.3310 hc         1 E6Y       0.050700
     79 H42         25.9810     7.3590    14.3070 hc         1 E6Y       0.050700
     80 H43         25.8200     5.6520    13.8440 hc         1 E6Y       0.050700
     81 H44         26.4780     8.7450    16.8370 h1         1 E6Y       0.046367
     82 H45         28.1950     8.6340    17.3180 h1         1 E6Y       0.046367
     83 H46         27.7440     8.5230    15.6030 h1         1 E6Y       0.046367
     84 H47         32.2430     6.7030    16.5020 hc         1 E6Y       0.043700
     85 H48         32.8220     7.5670    15.0900 hc         1 E6Y       0.043700
     86 H49         32.0630     2.3930    13.8510 hn         1 E6Y       0.414000
     87 H51         29.6000     6.2520    16.3420 hn         1 E6Y       0.320500
     88 H52         33.0680     4.4230    13.2300 ho         1 E6Y       0.438000
     89 C86         27.4380     8.2580    16.6230 c3         1 E6Y       0.087300
@<TRIPOS>BOND
     1     1     2 1   
     2     1    29 1   
     3     1    31 1   
     4     1    38 1   
     5     2    33 1   
     6     2    37 2   
     7     3     4 1   
     8     3    12 1   
     9     3    30 1   
    10     3    39 1   
    11     4     5 1   
    12     4    40 1   
    13     4    41 1   
    14     5     6 1   
    15     5    42 1   
    16     5    43 1   
    17     6     7 1   
    18     6    44 1   
    19     6    45 1   
    20     7     8 1   
    21     7    46 1   
    22     7    47 1   
    23     8     9 1   
    24     8    48 1   
    25     8    49 1   
    26     9    34 1   
    27     9    50 1   
    28     9    51 1   
    29    10    11 1   
    30    10    34 1   
    31    10    52 1   
    32    10    53 1   
    33    11    31 1   
    34    11    35 2   
    35    12    54 1   
    36    12    55 1   
    37    12    56 1   
    38    13    14 1   
    39    13    26 1   
    40    13    36 1   
    41    13    57 1   
    42    14    32 1   
    43    14    58 1   
    44    14    59 1   
    45    15    16 1   
    46    15    17 1   
    47    15    18 1   
    48    15    32 1   
    49    16    17 1   
    50    16    60 1   
    51    16    61 1   
    52    17    62 1   
    53    17    63 1   
    54    18    19 ar  
    55    18    23 ar  
    56    19    20 ar  
    57    19    64 1   
    58    20    21 ar  
    59    20    24 1   
    60    21    22 ar  
    61    21    65 1   
    62    22    23 ar  
    63    22    66 1   
    64    23    67 1   
    65    24    25 1   
    66    24    27 1   
    67    24    28 1   
    68    25    68 1   
    69    25    69 1   
    70    25    70 1   
    71    26    30 1   
    72    26    33 1   
    73    26    71 1   
    74    27    72 1   
    75    27    73 1   
    76    27    74 1   
    77    28    75 1   
    78    28    76 1   
    79    28    77 1   
    80    29    78 1   
    81    29    79 1   
    82    29    80 1   
    83    30    84 1   
    84    30    85 1   
    85    31    89 1   
    86    32    86 1   
    87    33    87 1   
    88    36    88 1   
    89    81    89 1   
    90    82    89 1   
    91    83    89 1   
@<TRIPOS>SUBSTRUCTURE
     1 E6Y         1 TEMP              0 ****  ****    0 ROOT
