@<TRIPOS>MOLECULE
E6Y
   89    91     1     0     0
SMALL
abcg2


@<TRIPOS>ATOM
      1 C2          27.3260     5.6530    16.0220 c3         1 E6Y       0.020700
      2 C4          28.3430     5.9760    14.9190 c          1 E6Y       0.589100
      3 C12         31.2960     8.3000    15.6840 c3         1 E6Y      -0.058700
      4 C14         32.4620     9.0560    16.3300 c3         1 E6Y      -0.072400
      5 C17         32.0890    10.3630    17.0280 c3         1 E6Y      -0.070400
      6 C20         31.0260    10.2300    18.1180 c3         1 E6Y      -0.073400
      7 C23         31.3950     9.2190    19.1970 c3         1 E6Y      -0.070400
      8 C26         30.4710     9.2200    20.4120 c3         1 E6Y      -0.074400
      9 C29         29.0130     8.9210    20.1260 c3         1 E6Y       0.160600
     10 C33         27.6360     7.1120    19.5230 c3         1 E6Y       0.081600
     11 C36         27.4590     6.1050    18.3980 c          1 E6Y       0.604100
     12 C38         30.6240     9.1230    14.5890 c3         1 E6Y      -0.093100
     13 C42         31.3790     4.7370    14.0030 c3         1 E6Y       0.162300
     14 C46         30.3970     3.9120    13.1840 c3         1 E6Y       0.167800
     15 C51         30.2240     1.9240    11.8140 cx         1 E6Y       0.189500
     16 C52         29.9730     0.4600    12.0350 cx         1 E6Y      -0.145900
     17 C55         28.8320     1.4230    12.1330 cx         1 E6Y      -0.145900
     18 C58         30.5230     2.3780    10.4170 ca         1 E6Y      -0.044300
     19 C59         31.5410     3.2970    10.1870 ca         1 E6Y      -0.086000
     20 C61         31.8580     3.7680     8.9100 ca         1 E6Y      -0.069300
     21 C62         31.1320     3.2690     7.8340 ca         1 E6Y      -0.108000
     22 C64         30.1190     2.3370     8.0410 ca         1 E6Y      -0.118000
     23 C66         29.8090     1.8980     9.3160 ca         1 E6Y      -0.114000
     24 C68         32.9610     4.8110     8.7600 c3         1 E6Y       0.003300
     25 C69         34.2720     4.2580     9.3340 c3         1 E6Y      -0.084100
     26 C7          30.7720     6.0870    14.4460 c3         1 E6Y       0.075700
     27 C73         33.2050     5.1910     7.2990 c3         1 E6Y      -0.084100
     28 C77         32.5630     6.0770     9.5310 c3         1 E6Y      -0.084100
     29 C82         25.8970     5.6190    15.5040 c3         1 E6Y      -0.094100
     30 C9          31.8070     6.9580    15.1590 c3         1 E6Y      -0.089400
     31 N1          27.4850     6.5830    17.1330 n          1 E6Y      -0.402800
     32 N49         30.9590     2.6210    12.8270 n7         1 E6Y      -0.841400
     33 N5          29.6250     5.8710    15.3060 ns         1 E6Y      -0.499900
     34 O32         28.8990     7.7090    19.4050 os         1 E6Y      -0.453000
     35 O37         27.3040     4.9180    18.6520 o          1 E6Y      -0.597100
     36 O44         32.5260     4.9450    13.2110 oh         1 E6Y      -0.642000
     37 O81         27.9960     6.2750    13.7880 o          1 E6Y      -0.596100
     38 H1          27.5750     4.6590    16.3970 h1         1 E6Y       0.091700
     39 H2          30.5540     8.1010    16.4660 hc         1 E6Y       0.054700
     40 H3          32.9520     8.3910    17.0480 hc         1 E6Y       0.037200
     41 H4          33.2150     9.2670    15.5620 hc         1 E6Y       0.037200
     42 H5          32.9970    10.7820    17.4730 hc         1 E6Y       0.038700
     43 H6          31.7560    11.0980    16.2900 hc         1 E6Y       0.038700
     44 H7          30.8740    11.2120    18.5780 hc         1 E6Y       0.035700
     45 H8          30.0620     9.9640    17.6720 hc         1 E6Y       0.035700
     46 H9          31.4270     8.2140    18.7700 hc         1 E6Y       0.044700
     47 H10         32.4120     9.4270    19.5460 hc         1 E6Y       0.044700
     48 H11         30.8440     8.5000    21.1450 hc         1 E6Y       0.046700
     49 H12         30.5070    10.1980    20.9010 hc         1 E6Y       0.046700
     50 H13         28.5470     9.7350    19.5560 h1         1 E6Y       0.024700
     51 H14         28.4740     8.8540    21.0800 h1         1 E6Y       0.024700
     52 H15         26.8230     7.8500    19.4900 h1         1 E6Y       0.050200
     53 H16         27.5360     6.5740    20.4720 h1         1 E6Y       0.050200
     54 H17         30.3370    10.1100    14.9530 hc         1 E6Y       0.037033
     55 H18         31.2950     9.2650    13.7380 hc         1 E6Y       0.037033
     56 H19         29.7160     8.6460    14.2200 hc         1 E6Y       0.037033
     57 H20         31.6370     4.1730    14.9140 h1         1 E6Y       0.022700
     58 H21         30.1550     4.4560    12.2670 h1         1 E6Y       0.052200
     59 H22         29.4570     3.8090    13.7380 h1         1 E6Y       0.052200
     60 H23         30.0250    -0.1940    11.1740 hc         1 E6Y       0.074700
     61 H24         30.3500     0.0140    12.9490 hc         1 E6Y       0.074700
     62 H25         28.0730     1.4200    11.3610 hc         1 E6Y       0.074700
     63 H26         28.4500     1.6490    13.1220 hc         1 E6Y       0.074700
     64 H27         32.0970     3.6600    11.0400 ha         1 E6Y       0.146000
     65 H28         31.3390     3.5950     6.8240 ha         1 E6Y       0.110000
     66 H29         29.5620     1.9560     7.1940 ha         1 E6Y       0.107000
     67 H30         29.0100     1.1770     9.4390 ha         1 E6Y       0.105000
     68 H31         34.1800     4.0010    10.3900 hc         1 E6Y       0.035033
     69 H32         34.5880     3.3630     8.7960 hc         1 E6Y       0.035033
     70 H33         35.0680     5.0010     9.2450 hc         1 E6Y       0.035033
     71 H34         30.4170     6.6070    13.5530 h1         1 E6Y       0.094700
     72 H35         32.3160     5.6170     6.8300 hc         1 E6Y       0.035033
     73 H36         33.9950     5.9410     7.2400 hc         1 E6Y       0.035033
     74 H37         33.5230     4.3340     6.7020 hc         1 E6Y       0.035033
     75 H38         32.4130     5.8800    10.5940 hc         1 E6Y       0.035033
     76 H39         33.3440     6.8360     9.4430 hc         1 E6Y       0.035033
     77 H40         31.6380     6.5030     9.1370 hc         1 E6Y       0.035033
     78 H41         25.2290     5.3200    16.3110 hc         1 E6Y       0.050700
     79 H42         25.5660     6.5850    15.1250 hc         1 E6Y       0.050700
     80 H43         25.7940     4.8920    14.6990 hc         1 E6Y       0.050700
     81 H44         27.0890     8.6060    17.5980 h1         1 E6Y       0.046367
     82 H45         28.4950     8.3570    16.5640 h1         1 E6Y       0.046367
     83 H46         26.8620     8.1620    15.9280 h1         1 E6Y       0.046367
     84 H47         32.2390     6.3920    15.9940 hc         1 E6Y       0.043700
     85 H48         32.6250     7.1580    14.4620 hc         1 E6Y       0.043700
     86 H49         31.0480     2.0450    13.6540 hn         1 E6Y       0.414000
     87 H51         29.8130     5.6080    16.2630 hn         1 E6Y       0.320500
     88 H52         33.2630     5.1780    13.7830 ho         1 E6Y       0.438000
     89 C86         27.4950     7.9950    16.7970 c3         1 E6Y       0.087300
@<TRIPOS>BOND
     1     1     2 1   
     2     1    29 1   
     3     1    31 1   
     4     1    38 1   
     5     2    33 1   
     6     2    37 2   
     7     3     4 1   
     8     3    12 1   
     9     3    30 1   
    10     3    39 1   
    11     4     5 1   
    12     4    40 1   
    13     4    41 1   
    14     5     6 1   
    15     5    42 1   
    16     5    43 1   
    17     6     7 1   
    18     6    44 1   
    19     6    45 1   
    20     7     8 1   
    21     7    46 1   
    22     7    47 1   
    23     8     9 1   
    24     8    48 1   
    25     8    49 1   
    26     9    34 1   
    27     9    50 1   
    28     9    51 1   
    29    10    11 1   
    30    10    34 1   
    31    10    52 1   
    32    10    53 1   
    33    11    31 1   
    34    11    35 2   
    35    12    54 1   
    36    12    55 1   
    37    12    56 1   
    38    13    14 1   
    39    13    26 1   
    40    13    36 1   
    41    13    57 1   
    42    14    32 1   
    43    14    58 1   
    44    14    59 1   
    45    15    16 1   
    46    15    17 1   
    47    15    18 1   
    48    15    32 1   
    49    16    17 1   
    50    16    60 1   
    51    16    61 1   
    52    17    62 1   
    53    17    63 1   
    54    18    19 ar  
    55    18    23 ar  
    56    19    20 ar  
    57    19    64 1   
    58    20    21 ar  
    59    20    24 1   
    60    21    22 ar  
    61    21    65 1   
    62    22    23 ar  
    63    22    66 1   
    64    23    67 1   
    65    24    25 1   
    66    24    27 1   
    67    24    28 1   
    68    25    68 1   
    69    25    69 1   
    70    25    70 1   
    71    26    30 1   
    72    26    33 1   
    73    26    71 1   
    74    27    72 1   
    75    27    73 1   
    76    27    74 1   
    77    28    75 1   
    78    28    76 1   
    79    28    77 1   
    80    29    78 1   
    81    29    79 1   
    82    29    80 1   
    83    30    84 1   
    84    30    85 1   
    85    31    89 1   
    86    32    86 1   
    87    33    87 1   
    88    36    88 1   
    89    81    89 1   
    90    82    89 1   
    91    83    89 1   
@<TRIPOS>SUBSTRUCTURE
     1 E6Y         1 TEMP              0 ****  ****    0 ROOT
