@<TRIPOS>MOLECULE
E6Z
   60    63     1     0     0
SMALL
No Charge or Current Charge


@<TRIPOS>ATOM
      1 C1           5.3970     3.0240    -0.6740 c3         1 E6Z       0.144900
      2 C10          5.0960    -2.9480     0.3440 c          1 E6Z       0.648300
      3 C11         -0.8910     1.3540     0.6950 ce         1 E6Z       0.399900
      4 C12         -2.9910    -1.5830     0.4480 c3         1 E6Z       0.136700
      5 C13         -2.1910    -2.6070     1.3050 c3         1 E6Z      -0.080400
      6 C14         -2.7510    -4.0470     1.2490 c3         1 E6Z      -0.068900
      7 C15         -2.2480    -4.9270     0.0800 c3         1 E6Z      -0.071400
      8 C16         -2.0710    -4.2380    -1.2930 c3         1 E6Z      -0.071400
      9 C17         -3.1260    -3.1680    -1.6530 c3         1 E6Z      -0.068900
     10 C18         -2.8070    -1.7660    -1.0810 c3         1 E6Z      -0.080400
     11 C19         -3.7070     0.8000     0.8380 c          1 E6Z       0.558000
     12 C2           3.3780     1.7110    -0.1050 ca         1 E6Z       0.188100
     13 C20         -3.2480     2.2630     1.0540 c6         1 E6Z      -0.140700
     14 C21         -4.2760     3.3650     0.6660 c6         1 E6Z      -0.029200
     15 C22         -4.2810     3.6740    -0.8220 c2         1 E6Z      -0.208200
     16 C23         -3.2910     3.3130    -1.6540 c2         1 E6Z      -0.226200
     17 C24         -2.0540     2.5460    -1.2100 c6         1 E6Z      -0.038200
     18 C25         -1.8760     2.4880     0.3380 c6         1 E6Z      -0.129000
     19 C3           2.5490     2.8510    -0.1490 ca         1 E6Z      -0.215000
     20 C4           1.1720     2.7440     0.1060 ca         1 E6Z      -0.039000
     21 C5           0.5840     1.4940     0.4100 ca         1 E6Z      -0.164900
     22 C6           1.4260     0.3570     0.4600 ca         1 E6Z      -0.013000
     23 C7           2.8060     0.4580     0.2040 ca         1 E6Z      -0.038000
     24 C8           3.6130    -0.7300     0.2610 cg         1 E6Z      -0.026000
     25 C9           4.2860    -1.7480     0.3050 ch         1 E6Z      -0.182200
     26 N1           5.3790    -3.4780    -0.8610 nt         1 E6Z      -0.602000
     27 N2          -1.3580     0.2070     1.0950 n2         1 E6Z      -0.448300
     28 N3          -2.6670    -0.1800     0.8220 n          1 E6Z      -0.182800
     29 O1           4.7380     1.7870    -0.3540 os         1 E6Z      -0.317100
     30 O2           5.4970    -3.4480     1.3820 o          1 E6Z      -0.585100
     31 O3          -4.8930     0.5060     0.7250 o          1 E6Z      -0.531000
     32 H1           4.9840     3.4600    -1.5930 h1         1 E6Z       0.046700
     33 H2           5.2860     3.7490     0.1420 h1         1 E6Z       0.046700
     34 H3           6.4690     2.8540    -0.8320 h1         1 E6Z       0.046700
     35 H4          -4.0510    -1.7580     0.6730 h1         1 E6Z       0.077700
     36 H5          -1.1300    -2.6010     1.0270 hc         1 E6Z       0.048700
     37 H6          -2.2390    -2.2780     2.3500 hc         1 E6Z       0.048700
     38 H7          -2.4960    -4.5580     2.1850 hc         1 E6Z       0.039700
     39 H8          -3.8470    -4.0070     1.2240 hc         1 E6Z       0.039700
     40 H9          -1.2860    -5.3710     0.3620 hc         1 E6Z       0.035700
     41 H10         -2.9450    -5.7670    -0.0340 hc         1 E6Z       0.035700
     42 H11         -1.0720    -3.7880    -1.3440 hc         1 E6Z       0.035700
     43 H12         -2.0850    -5.0180    -2.0640 hc         1 E6Z       0.035700
     44 H13         -3.1590    -3.0810    -2.7460 hc         1 E6Z       0.039700
     45 H14         -4.1260    -3.4930    -1.3400 hc         1 E6Z       0.039700
     46 H15         -3.4570    -1.0410    -1.5870 hc         1 E6Z       0.048700
     47 H16         -1.7810    -1.4920    -1.3550 hc         1 E6Z       0.048700
     48 H17         -3.0330     2.3260     2.1300 hc         1 E6Z       0.078700
     49 H18         -5.2850     3.0810     0.9960 hc         1 E6Z       0.063200
     50 H19         -4.0360     4.2900     1.2090 hc         1 E6Z       0.063200
     51 H20         -5.1480     4.2220    -1.1970 ha         1 E6Z       0.178000
     52 H21         -3.3450     3.5630    -2.7160 ha         1 E6Z       0.177000
     53 H22         -2.1180     1.5270    -1.6190 hc         1 E6Z       0.056700
     54 H23         -1.1630     2.9970    -1.6670 hc         1 E6Z       0.056700
     55 H24         -1.4840     3.4500     0.6900 hc         1 E6Z       0.072700
     56 H25          2.9530     3.8320    -0.3800 ha         1 E6Z       0.124000
     57 H26          0.5760     3.6510     0.0630 ha         1 E6Z       0.116000
     58 H27          1.0130    -0.6220     0.6940 ha         1 E6Z       0.140000
     59 H28          5.9410    -4.3140    -0.9150 hn         1 E6Z       0.319500
     60 H29          5.0290    -3.0340    -1.6970 hn         1 E6Z       0.319500
@<TRIPOS>BOND
     1     1    29 1   
     2     1    32 1   
     3     1    33 1   
     4     1    34 1   
     5     2    25 1   
     6     2    26 1   
     7     2    30 2   
     8     3    18 1   
     9     3    21 1   
    10     3    27 2   
    11     4     5 1   
    12     4    10 1   
    13     4    28 1   
    14     4    35 1   
    15     5     6 1   
    16     5    36 1   
    17     5    37 1   
    18     6     7 1   
    19     6    38 1   
    20     6    39 1   
    21     7     8 1   
    22     7    40 1   
    23     7    41 1   
    24     8     9 1   
    25     8    42 1   
    26     8    43 1   
    27     9    10 1   
    28     9    44 1   
    29     9    45 1   
    30    10    46 1   
    31    10    47 1   
    32    11    13 1   
    33    11    28 1   
    34    11    31 2   
    35    12    19 ar  
    36    12    23 ar  
    37    12    29 1   
    38    13    14 1   
    39    13    18 1   
    40    13    48 1   
    41    14    15 1   
    42    14    49 1   
    43    14    50 1   
    44    15    16 2   
    45    15    51 1   
    46    16    17 1   
    47    16    52 1   
    48    17    18 1   
    49    17    53 1   
    50    17    54 1   
    51    18    55 1   
    52    19    20 ar  
    53    19    56 1   
    54    20    21 ar  
    55    20    57 1   
    56    21    22 ar  
    57    22    23 ar  
    58    22    58 1   
    59    23    24 1   
    60    24    25 3   
    61    26    59 1   
    62    26    60 1   
    63    27    28 1   
@<TRIPOS>SUBSTRUCTURE
     1 E6Z         1 TEMP              0 ****  ****    0 ROOT
