@<TRIPOS>MOLECULE
E6Z
   60    63     1     0     0
SMALL
abcg2


@<TRIPOS>ATOM
      1 C1           5.3250     3.1350    -0.6530 c3         1 E6Z       0.144900
      2 C10          5.3780    -2.6450     0.4920 c          1 E6Z       0.648300
      3 C11         -0.8290     1.2530     0.1980 ce         1 E6Z       0.399900
      4 C12         -2.9530    -1.5820     0.1200 c3         1 E6Z       0.136700
      5 C13         -2.1650    -2.5420     1.0140 c3         1 E6Z      -0.080400
      6 C14         -2.7720    -3.9470     1.0350 c3         1 E6Z      -0.068900
      7 C15         -2.2800    -4.8980    -0.0580 c3         1 E6Z      -0.071400
      8 C16         -2.0840    -4.2720    -1.4400 c3         1 E6Z      -0.071400
      9 C17         -3.1430    -3.2480    -1.8490 c3         1 E6Z      -0.068900
     10 C18         -2.8300    -1.8280    -1.3820 c3         1 E6Z      -0.080400
     11 C19         -3.5100     0.7390     0.7860 c          1 E6Z       0.558000
     12 C2           3.4030     1.8100    -0.2520 ca         1 E6Z       0.188100
     13 C20         -2.9180     2.0840     1.1460 c6         1 E6Z      -0.140700
     14 C21         -3.9500     3.2000     1.1830 c6         1 E6Z      -0.029200
     15 C22         -4.2890     3.7090    -0.1840 c2         1 E6Z      -0.208200
     16 C23         -3.5640     3.4510    -1.2670 c2         1 E6Z      -0.226200
     17 C24         -2.3130     2.6270    -1.2510 c6         1 E6Z      -0.038200
     18 C25         -1.7870     2.4040     0.1760 c6         1 E6Z      -0.129000
     19 C3           2.5330     2.8840    -0.3940 ca         1 E6Z      -0.215000
     20 C4           1.1670     2.6970    -0.2380 ca         1 E6Z      -0.039000
     21 C5           0.6230     1.4480     0.0550 ca         1 E6Z      -0.164900
     22 C6           1.5010     0.3740     0.1910 ca         1 E6Z      -0.013000
     23 C7           2.8720     0.5380     0.0460 ca         1 E6Z      -0.038000
     24 C8           3.7440    -0.5710     0.2030 cg         1 E6Z      -0.026000
     25 C9           4.4640    -1.5270     0.3490 ch         1 E6Z      -0.182200
     26 N1           4.7770    -3.8330     0.6350 nt         1 E6Z      -0.602000
     27 N2          -1.2520     0.0530     0.3000 n2         1 E6Z      -0.448300
     28 N3          -2.5870    -0.1900     0.4020 n          1 E6Z      -0.182800
     29 O1           4.7280     1.8800    -0.3730 os         1 E6Z      -0.317100
     30 O2           6.5870    -2.4740     0.4780 o          1 E6Z      -0.585100
     31 O3          -4.6980     0.4790     0.8740 o          1 E6Z      -0.531000
     32 H1           4.9850     3.5410    -1.6080 h1         1 E6Z       0.046700
     33 H2           5.1230     3.8620     0.1370 h1         1 E6Z       0.046700
     34 H3           6.3960     2.9580    -0.7050 h1         1 E6Z       0.046700
     35 H4          -4.0030    -1.6720     0.3970 h1         1 E6Z       0.077700
     36 H5          -1.1140    -2.5770     0.7170 hc         1 E6Z       0.048700
     37 H6          -2.1850    -2.1360     2.0290 hc         1 E6Z       0.048700
     38 H7          -2.5640    -4.4080     2.0030 hc         1 E6Z       0.039700
     39 H8          -3.8620    -3.8620     0.9850 hc         1 E6Z       0.039700
     40 H9          -1.3330    -5.3480     0.2520 hc         1 E6Z       0.035700
     41 H10         -2.9920    -5.7240    -0.1350 hc         1 E6Z       0.035700
     42 H11         -1.1030    -3.7890    -1.4900 hc         1 E6Z       0.035700
     43 H12         -2.0500    -5.0790    -2.1770 hc         1 E6Z       0.035700
     44 H13         -3.2080    -3.2230    -2.9390 hc         1 E6Z       0.039700
     45 H14         -4.1350    -3.5560    -1.4990 hc         1 E6Z       0.039700
     46 H15         -3.5010    -1.1270    -1.8890 hc         1 E6Z       0.048700
     47 H16         -1.8150    -1.5750    -1.7050 hc         1 E6Z       0.048700
     48 H17         -2.4890     1.9660     2.1500 hc         1 E6Z       0.078700
     49 H18         -4.8540     2.8650     1.6950 hc         1 E6Z       0.063200
     50 H19         -3.5600     4.0230     1.7900 hc         1 E6Z       0.063200
     51 H20         -5.1750     4.3280    -0.2710 ha         1 E6Z       0.178000
     52 H21         -3.8760     3.8420    -2.2290 ha         1 E6Z       0.177000
     53 H22         -2.5010     1.6700    -1.7520 hc         1 E6Z       0.056700
     54 H23         -1.5400     3.1160    -1.8490 hc         1 E6Z       0.056700
     55 H24         -1.3070     3.3210     0.5220 hc         1 E6Z       0.072700
     56 H25          2.8990     3.8740    -0.6240 ha         1 E6Z       0.124000
     57 H26          0.5280     3.5620    -0.3570 ha         1 E6Z       0.116000
     58 H27          1.1150    -0.6100     0.4220 ha         1 E6Z       0.140000
     59 H28          5.3270    -4.6700     0.7420 hn         1 E6Z       0.319500
     60 H29          3.7760    -3.9240     0.6340 hn         1 E6Z       0.319500
@<TRIPOS>BOND
     1     1    29 1   
     2     1    32 1   
     3     1    33 1   
     4     1    34 1   
     5     2    25 1   
     6     2    26 1   
     7     2    30 2   
     8     3    18 1   
     9     3    21 1   
    10     3    27 2   
    11     4     5 1   
    12     4    10 1   
    13     4    28 1   
    14     4    35 1   
    15     5     6 1   
    16     5    36 1   
    17     5    37 1   
    18     6     7 1   
    19     6    38 1   
    20     6    39 1   
    21     7     8 1   
    22     7    40 1   
    23     7    41 1   
    24     8     9 1   
    25     8    42 1   
    26     8    43 1   
    27     9    10 1   
    28     9    44 1   
    29     9    45 1   
    30    10    46 1   
    31    10    47 1   
    32    11    13 1   
    33    11    28 1   
    34    11    31 2   
    35    12    19 ar  
    36    12    23 ar  
    37    12    29 1   
    38    13    14 1   
    39    13    18 1   
    40    13    48 1   
    41    14    15 1   
    42    14    49 1   
    43    14    50 1   
    44    15    16 2   
    45    15    51 1   
    46    16    17 1   
    47    16    52 1   
    48    17    18 1   
    49    17    53 1   
    50    17    54 1   
    51    18    55 1   
    52    19    20 ar  
    53    19    56 1   
    54    20    21 ar  
    55    20    57 1   
    56    21    22 ar  
    57    22    23 ar  
    58    22    58 1   
    59    23    24 1   
    60    24    25 3   
    61    26    59 1   
    62    26    60 1   
    63    27    28 1   
@<TRIPOS>SUBSTRUCTURE
     1 E6Z         1 TEMP              0 ****  ****    0 ROOT
