@<TRIPOS>MOLECULE
E70
   43    45     1     0     0
SMALL
abcg2


@<TRIPOS>ATOM
      1 CAA         -0.5300     4.3570     0.0710 c3         1 E70       0.144900
      2 OAS         -0.6290     3.5210    -1.0680 os         1 E70      -0.326100
      3 CAV         -1.0780     2.2740    -0.9160 ca         1 E70       0.209100
      4 CAL         -1.0810     1.4760    -2.0670 ca         1 E70      -0.196500
      5 CAN         -1.4990     0.1670    -2.0060 ca         1 E70       0.026000
      6 CAM         -1.5320     1.7430     0.2910 ca         1 E70      -0.196500
      7 CAO         -1.9640     0.4280     0.3500 ca         1 E70       0.026000
      8 CAW         -1.9390    -0.3580    -0.7920 ca         1 E70      -0.329500
      9 SAZ         -2.3540    -2.0580    -0.6960 sy         1 E70       1.136600
     10 OAB         -3.2250    -2.2550     0.4530 o          1 E70      -0.541000
     11 OAC         -2.7740    -2.5470    -2.0000 o          1 E70      -0.541000
     12 NAR         -0.8480    -2.7630    -0.4330 nu         1 E70      -0.882100
     13 CAX         -0.2940    -2.6250     0.8680 ca         1 E70       0.094000
     14 CAG         -0.6900    -3.4120     1.9300 ca         1 E70      -0.030000
     15 CAE         -0.1270    -3.2080     3.1850 ca         1 E70      -0.209000
     16 CAF          0.7980    -2.1900     3.3070 ca         1 E70       0.392900
     17 NAP          1.2050    -1.4300     2.2970 nb         1 E70      -0.738000
     18 CAY          0.6950    -1.6360     1.0890 ca         1 E70       0.642900
     19 NAQ          1.1430    -0.9070     0.0300 nu         1 E70      -0.923900
     20 CAU          1.7460     0.3520    -0.0040 ca         1 E70       0.281000
     21 CAJ          2.0900     0.8520    -1.2630 ca         1 E70      -0.114000
     22 CAH          2.6170     2.1190    -1.4180 ca         1 E70      -0.147500
     23 CAT          2.8310     2.9290    -0.3070 ca         1 E70       0.106100
     24 OAD          3.3370     4.1680    -0.5090 oh         1 E70      -0.534100
     25 CAI          2.5170     2.4320     0.9500 ca         1 E70      -0.147500
     26 CAK          1.9810     1.1600     1.1060 ca         1 E70      -0.114000
     27 HAA         -0.0890     5.2900    -0.2700 h1         1 E70       0.047367
     28 HAAA        -1.5110     4.5660     0.5040 h1         1 E70       0.047367
     29 HAAB         0.1140     3.9180     0.8350 h1         1 E70       0.047367
     30 HAL         -0.7330     1.8910    -3.0040 ha         1 E70       0.129000
     31 HAN         -1.4780    -0.4410    -2.9000 ha         1 E70       0.137000
     32 HAM         -1.5520     2.3350     1.1950 ha         1 E70       0.129000
     33 HAO         -2.3080     0.0290     1.2940 ha         1 E70       0.137000
     34 HNAR        -0.8340    -3.7090    -0.8070 hn         1 E70       0.489000
     35 HAG         -1.4380    -4.1790     1.7790 ha         1 E70       0.129000
     36 HAE         -0.4110    -3.8090     4.0360 ha         1 E70       0.132000
     37 HAF          1.2500    -1.9760     4.2700 h4         1 E70       0.020100
     38 HNAQ         0.8050    -1.2350    -0.8610 hn         1 E70       0.510000
     39 HAJ          1.9200     0.2470    -2.1460 ha         1 E70       0.129500
     40 HAH          2.8570     2.4830    -2.4090 ha         1 E70       0.120000
     41 HOAD         3.4350     4.6280     0.3320 ho         1 E70       0.460000
     42 HAI          2.6780     3.0390     1.8340 ha         1 E70       0.120000
     43 HAK          1.7430     0.8130     2.0990 ha         1 E70       0.129500
@<TRIPOS>BOND
     1     1     2 1   
     2     1    27 1   
     3     1    28 1   
     4     1    29 1   
     5     2     3 1   
     6     3     4 ar  
     7     3     6 ar  
     8     4     5 ar  
     9     4    30 1   
    10     5     8 ar  
    11     5    31 1   
    12     6     7 ar  
    13     6    32 1   
    14     7     8 ar  
    15     7    33 1   
    16     8     9 1   
    17     9    10 2   
    18     9    11 2   
    19     9    12 1   
    20    12    13 1   
    21    12    34 1   
    22    13    14 ar  
    23    13    18 ar  
    24    14    15 ar  
    25    14    35 1   
    26    15    16 ar  
    27    15    36 1   
    28    16    17 ar  
    29    16    37 1   
    30    17    18 ar  
    31    18    19 1   
    32    19    20 1   
    33    19    38 1   
    34    20    21 ar  
    35    20    26 ar  
    36    21    22 ar  
    37    21    39 1   
    38    22    23 ar  
    39    22    40 1   
    40    23    24 1   
    41    23    25 ar  
    42    24    41 1   
    43    25    26 ar  
    44    25    42 1   
    45    26    43 1   
@<TRIPOS>SUBSTRUCTURE
     1 E70         1 TEMP              0 ****  ****    0 ROOT
