@<TRIPOS>MOLECULE
E70
   43    45     1     0     0
SMALL
No Charge or Current Charge


@<TRIPOS>ATOM
      1 CAA         -0.4770     4.6550    -0.5930 c3         1 E70       0.144900
      2 OAS         -0.6320     3.6420    -1.6020 os         1 E70      -0.326100
      3 CAV         -1.0920     2.3760    -1.3060 ca         1 E70       0.209100
      4 CAL         -1.1340     1.4360    -2.3460 ca         1 E70      -0.196500
      5 CAN         -1.5770     0.1250    -2.1080 ca         1 E70       0.026000
      6 CAM         -1.5080     2.0010    -0.0110 ca         1 E70      -0.196500
      7 CAO         -1.9560     0.6910     0.2340 ca         1 E70       0.026000
      8 CAW         -1.9840    -0.2500    -0.8140 ca         1 E70      -0.329500
      9 SAZ         -2.5400    -1.9260    -0.5050 sy         1 E70       1.136600
     10 OAB         -3.2560    -1.9980     0.7710 o          1 E70      -0.541000
     11 OAC         -3.0690    -2.5190    -1.7340 o          1 E70      -0.541000
     12 NAR         -1.1490    -2.8330    -0.2300 nu         1 E70      -0.882100
     13 CAX         -0.3290    -2.7840     0.9300 ca         1 E70       0.094000
     14 CAG         -0.4540    -3.7990     1.8940 ca         1 E70      -0.030000
     15 CAE          0.3660    -3.7540     3.0340 ca         1 E70      -0.209000
     16 CAF          1.2950    -2.7110     3.1770 ca         1 E70       0.392900
     17 NAP          1.4480    -1.7320     2.2610 nb         1 E70      -0.738000
     18 CAY          0.6510    -1.7650     1.1820 ca         1 E70       0.642900
     19 NAQ          0.9060    -0.7890     0.2380 nu         1 E70      -0.923900
     20 CAU          1.5620     0.4450     0.2230 ca         1 E70       0.281000
     21 CAJ          1.9790     0.9670    -1.0150 ca         1 E70      -0.114000
     22 CAH          2.6100     2.2230    -1.0880 ca         1 E70      -0.147500
     23 CAT          2.8240     2.9700     0.0790 ca         1 E70       0.106100
     24 OAD          3.4350     4.1860     0.0010 oh         1 E70      -0.534100
     25 CAI          2.3990     2.4670     1.3200 ca         1 E70      -0.147500
     26 CAK          1.7670     1.2110     1.3890 ca         1 E70      -0.114000
     27 HAA         -0.0730     5.5740    -1.0360 h1         1 E70       0.047367
     28 HAAA        -1.4420     4.8960    -0.1300 h1         1 E70       0.047367
     29 HAAB         0.2170     4.3220     0.1900 h1         1 E70       0.047367
     30 HAL         -0.8150     1.7250    -3.3440 ha         1 E70       0.129000
     31 HAN         -1.5970    -0.5930    -2.9280 ha         1 E70       0.137000
     32 HAM         -1.4870     2.7040     0.8150 ha         1 E70       0.129000
     33 HAO         -2.2660     0.4120     1.2400 ha         1 E70       0.137000
     34 HNAR        -1.4750    -3.7600    -0.4780 hn         1 E70       0.489000
     35 HAG         -1.1760    -4.6030     1.7670 ha         1 E70       0.129000
     36 HAE          0.2910    -4.5190     3.8010 ha         1 E70       0.132000
     37 HAF          1.9430    -2.6630     4.0520 h4         1 E70       0.020100
     38 HNAQ         0.3950    -1.0040    -0.6140 hn         1 E70       0.510000
     39 HAJ          1.8140     0.3980    -1.9260 ha         1 E70       0.129500
     40 HAH          2.9300     2.6150    -2.0500 ha         1 E70       0.120000
     41 HOAD         3.5290     4.5490     0.9080 ho         1 E70       0.460000
     42 HAI          2.5480     3.0430     2.2300 ha         1 E70       0.120000
     43 HAK          1.4220     0.8480     2.3520 ha         1 E70       0.129500
@<TRIPOS>BOND
     1     1     2 1   
     2     1    27 1   
     3     1    28 1   
     4     1    29 1   
     5     2     3 1   
     6     3     4 ar  
     7     3     6 ar  
     8     4     5 ar  
     9     4    30 1   
    10     5     8 ar  
    11     5    31 1   
    12     6     7 ar  
    13     6    32 1   
    14     7     8 ar  
    15     7    33 1   
    16     8     9 1   
    17     9    10 2   
    18     9    11 2   
    19     9    12 1   
    20    12    13 1   
    21    12    34 1   
    22    13    14 ar  
    23    13    18 ar  
    24    14    15 ar  
    25    14    35 1   
    26    15    16 ar  
    27    15    36 1   
    28    16    17 ar  
    29    16    37 1   
    30    17    18 ar  
    31    18    19 1   
    32    19    20 1   
    33    19    38 1   
    34    20    21 ar  
    35    20    26 ar  
    36    21    22 ar  
    37    21    39 1   
    38    22    23 ar  
    39    22    40 1   
    40    23    24 1   
    41    23    25 ar  
    42    24    41 1   
    43    25    26 ar  
    44    25    42 1   
    45    26    43 1   
@<TRIPOS>SUBSTRUCTURE
     1 E70         1 TEMP              0 ****  ****    0 ROOT
