@<TRIPOS>MOLECULE
E71
   40    44     1     0     0
SMALL
abcg2


@<TRIPOS>ATOM
      1 F2          -5.5710    -1.4000     1.8170 f          1 E71      -0.158000
      2 C6          -5.1720    -0.6630     0.7770 ca         1 E71       0.127000
      3 C1          -3.9950     0.0590     0.8840 ca         1 E71       0.143000
      4 F1          -3.2940    -0.0080     2.0170 f          1 E71      -0.150000
      5 C5          -5.9190    -0.6240    -0.3810 ca         1 E71      -0.126000
      6 C4          -5.4740     0.1540    -1.4420 ca         1 E71      -0.106000
      7 C3          -4.2960     0.8750    -1.3380 ca         1 E71      -0.090000
      8 C2          -3.5380     0.8370    -0.1680 ca         1 E71      -0.022000
      9 C7          -2.2820     1.5830    -0.0330 cc         1 E71      -0.210000
     10 C9          -1.0010     1.1290    -0.1740 cd         1 E71       0.323800
     11 O           -0.1580     2.1430     0.0410 os         1 E71      -0.074700
     12 N1          -0.8530     3.2830     0.3280 nd         1 E71      -0.362300
     13 C8          -2.1070     2.9500     0.2820 cc         1 E71       0.288900
     14 C10         -0.4340    -0.1530    -0.4860 cd         1 E71      -0.225000
     15 C16         -1.1400    -1.2730    -0.8640 cc         1 E71      -0.092100
     16 N3          -0.2900    -2.3040    -1.0750 na         1 E71      -0.308400
     17 C15          0.9890    -1.8970    -0.8440 ca         1 E71       0.364500
     18 C11          0.9490    -0.5370    -0.4700 ca         1 E71      -0.105800
     19 N2           2.0680    -2.6500    -0.9530 nb         1 E71      -0.675000
     20 C14          3.2080    -2.0490    -0.6670 ca         1 E71       0.375900
     21 C13          3.3190    -0.7020    -0.2760 cp         1 E71      -0.122000
     22 C12          2.1670     0.0700    -0.1830 ca         1 E71      -0.003000
     23 C17          4.6430    -0.1290     0.0220 cp         1 E71       0.012000
     24 C21          4.9540     1.1900    -0.3060 ca         1 E71      -0.157500
     25 C20          6.2110     1.6840     0.0020 ca         1 E71       0.336900
     26 N4           7.1580     0.9700     0.5990 nb         1 E71      -0.662000
     27 C19          6.8630    -0.2870     0.9120 ca         1 E71       0.336900
     28 C18          5.6360    -0.8770     0.6520 ca         1 E71      -0.157500
     29 H4          -6.8350    -1.1970    -0.4490 ha         1 E71       0.138000
     30 H3          -6.0530     0.1890    -2.3550 ha         1 E71       0.126000
     31 H2          -3.9490     1.4760    -2.1680 ha         1 E71       0.130000
     32 H5          -2.8710     3.6870     0.4780 h4         1 E71       0.048100
     33 H8          -2.2000    -1.4020    -1.0070 h4         1 E71       0.228000
     34 H1          -0.5660    -3.2350    -1.3500 hn         1 E71       0.370000
     35 H7           4.1050    -2.6500    -0.7700 h4         1 E71       0.027100
     36 H6           2.2300     1.1050     0.1240 ha         1 E71       0.142000
     37 H12          4.2380     1.8220    -0.8140 ha         1 E71       0.125500
     38 H11          6.4630     2.7080    -0.2540 h4         1 E71       0.020100
     39 H10          7.6410    -0.8590     1.4040 h4         1 E71       0.020100
     40 H9           5.4570    -1.8980     0.9600 ha         1 E71       0.125500
@<TRIPOS>BOND
     1     1     2 1   
     2     2     3 ar  
     3     2     5 ar  
     4     3     4 1   
     5     3     8 ar  
     6     5     6 ar  
     7     5    29 1   
     8     6     7 ar  
     9     6    30 1   
    10     7     8 ar  
    11     7    31 1   
    12     8     9 1   
    13     9    10 2   
    14     9    13 1   
    15    10    11 1   
    16    10    14 1   
    17    11    12 1   
    18    12    13 2   
    19    13    32 1   
    20    14    15 2   
    21    14    18 1   
    22    15    16 1   
    23    15    33 1   
    24    16    17 1   
    25    16    34 1   
    26    17    18 ar  
    27    17    19 ar  
    28    18    22 ar  
    29    19    20 ar  
    30    20    21 ar  
    31    20    35 1   
    32    21    22 ar  
    33    21    23 1   
    34    22    36 1   
    35    23    24 ar  
    36    23    28 ar  
    37    24    25 ar  
    38    24    37 1   
    39    25    26 ar  
    40    25    38 1   
    41    26    27 ar  
    42    27    28 ar  
    43    27    39 1   
    44    28    40 1   
@<TRIPOS>SUBSTRUCTURE
     1 E71         1 TEMP              0 ****  ****    0 ROOT
