@<TRIPOS>MOLECULE
E71
   40    44     1     0     0
SMALL
No Charge or Current Charge


@<TRIPOS>ATOM
      1 F2          -5.0200    -1.9760     1.6250 f          1 E71      -0.158000
      2 C6          -4.8580    -0.9560     0.7520 ca         1 E71       0.127000
      3 C1          -3.6380    -0.2530     0.6990 ca         1 E71       0.143000
      4 F1          -2.6550    -0.5690     1.5750 f          1 E71      -0.150000
      5 C5          -5.9230    -0.5910    -0.0860 ca         1 E71      -0.126000
      6 C4          -5.7760     0.4950    -0.9650 ca         1 E71      -0.106000
      7 C3          -4.5610     1.2000    -1.0190 ca         1 E71      -0.090000
      8 C2          -3.4640     0.8120    -0.2200 ca         1 E71      -0.022000
      9 C7          -2.2280     1.6030    -0.2720 cc         1 E71      -0.210000
     10 C9          -0.9360     1.1430    -0.3310 cd         1 E71       0.323800
     11 O           -0.0690     2.2050    -0.3590 os         1 E71      -0.074700
     12 N1          -0.8330     3.4150    -0.5090 nd         1 E71      -0.362300
     13 C8          -2.0850     2.9900    -0.4790 cc         1 E71       0.288900
     14 C10         -0.4430    -0.2080    -0.5370 cd         1 E71      -0.225000
     15 C16         -1.2590    -1.2540    -0.9550 cc         1 E71      -0.092100
     16 N3          -0.3720    -2.3370    -1.1320 na         1 E71      -0.308400
     17 C15          0.9340    -1.9840    -0.8660 ca         1 E71       0.364500
     18 C11          0.9350    -0.6590    -0.4970 ca         1 E71      -0.105800
     19 N2           2.0480    -2.7310    -0.9300 nb         1 E71      -0.675000
     20 C14          3.2160    -2.1180    -0.6020 ca         1 E71       0.375900
     21 C13          3.3240    -0.7540    -0.1990 cp         1 E71      -0.122000
     22 C12          2.1210    -0.0010    -0.1450 ca         1 E71      -0.003000
     23 C17          4.6450    -0.1440     0.1540 cp         1 E71       0.012000
     24 C21          4.9130     1.2310    -0.0450 ca         1 E71      -0.157500
     25 C20          6.1670     1.7640     0.2980 ca         1 E71       0.336900
     26 N4           7.1640     1.0180     0.8250 nb         1 E71      -0.662000
     27 C19          6.9250    -0.2980     1.0220 ca         1 E71       0.336900
     28 C18          5.7010    -0.9090     0.7050 ca         1 E71      -0.157500
     29 H4          -6.8630    -1.1360    -0.0390 ha         1 E71       0.138000
     30 H3          -6.6060     0.7930    -1.6040 ha         1 E71       0.126000
     31 H2          -4.4660     2.0400    -1.7040 ha         1 E71       0.130000
     32 H5          -2.8780     3.7190    -0.5730 h4         1 E71       0.048100
     33 H8          -2.3160    -1.3210    -1.1930 h4         1 E71       0.228000
     34 H1          -0.6360    -3.2630    -1.4450 hn         1 E71       0.370000
     35 H7           4.1050    -2.7420    -0.6730 h4         1 E71       0.027100
     36 H6           2.1190     1.0360     0.1760 ha         1 E71       0.142000
     37 H12          4.1660     1.8900    -0.4770 ha         1 E71       0.125500
     38 H11          6.3810     2.8210     0.1430 h4         1 E71       0.020100
     39 H10          7.7400    -0.8800     1.4510 h4         1 E71       0.020100
     40 H9           5.5790    -1.9690     0.9030 ha         1 E71       0.125500
@<TRIPOS>BOND
     1     1     2 1   
     2     2     3 ar  
     3     2     5 ar  
     4     3     4 1   
     5     3     8 ar  
     6     5     6 ar  
     7     5    29 1   
     8     6     7 ar  
     9     6    30 1   
    10     7     8 ar  
    11     7    31 1   
    12     8     9 1   
    13     9    10 2   
    14     9    13 1   
    15    10    11 1   
    16    10    14 1   
    17    11    12 1   
    18    12    13 2   
    19    13    32 1   
    20    14    15 2   
    21    14    18 1   
    22    15    16 1   
    23    15    33 1   
    24    16    17 1   
    25    16    34 1   
    26    17    18 ar  
    27    17    19 ar  
    28    18    22 ar  
    29    19    20 ar  
    30    20    21 ar  
    31    20    35 1   
    32    21    22 ar  
    33    21    23 1   
    34    22    36 1   
    35    23    24 ar  
    36    23    28 ar  
    37    24    25 ar  
    38    24    37 1   
    39    25    26 ar  
    40    25    38 1   
    41    26    27 ar  
    42    27    28 ar  
    43    27    39 1   
    44    28    40 1   
@<TRIPOS>SUBSTRUCTURE
     1 E71         1 TEMP              0 ****  ****    0 ROOT
