@<TRIPOS>MOLECULE
E72
   91    93     1     0     0
SMALL
abcg2


@<TRIPOS>ATOM
      1 N1          -0.5620     0.7940     0.4210 nb         1 E72      -0.346000
      2 C2           0.4980     1.6060     0.2250 ca         1 E72       0.425900
      3 N3           1.7470     1.2410     0.0360 nb         1 E72      -0.294000
      4 C4           1.9790    -0.0950     0.0250 ca         1 E72       0.117000
      5 C5           0.9620    -1.0450     0.2030 ca         1 E72      -0.222000
      6 C6          -0.3540    -0.5050     0.4220 ca         1 E72       0.442900
      7 CAA          3.5990    -1.8870    -0.1800 ca         1 E72       0.172100
      8 CAB          2.5590    -2.8500    -0.0120 ca         1 E72       0.083100
      9 CAC          1.2730    -2.4220     0.1830 ca         1 E72      -0.129000
     10 CAF          3.3040    -0.5470    -0.1640 ca         1 E72      -0.207000
     11 OAK          4.8220    -2.4050    -0.3440 os         1 E72      -0.326100
     12 OAL          2.9590    -4.1360    -0.0590 os         1 E72      -0.320100
     13 CAM          1.9710    -5.1390     0.0470 c3         1 E72       0.145900
     14 NAN         -1.3980    -1.3150     0.6560 nu         1 E72      -0.927100
     15 CAO         -2.7550    -0.8570     0.8680 c6         1 E72       0.238500
     16 CAP         -3.5220    -1.8700     1.7070 c6         1 E72      -0.093400
     17 CAQ         -4.9620    -1.4200     1.9030 c6         1 E72       0.171800
     18 NAR         -5.6290    -1.2220     0.6300 n3         1 E72      -0.725600
     19 CAS         -4.9450    -0.2030    -0.1450 c6         1 E72       0.171800
     20 CAT         -3.5060    -0.6030    -0.4360 c6         1 E72      -0.093400
     21 NAU          0.2060     2.9260     0.2140 nu         1 E72      -0.927100
     22 CAV          1.2110     3.9600     0.1660 c3         1 E72       0.238800
     23 CAW          0.5530     5.3310     0.1440 c3         1 E72      -0.097400
     24 CAX          1.5970     6.4380     0.1000 c3         1 E72       0.168800
     25 NAY          1.0260     7.7690     0.0050 n3         1 E72      -0.712600
     26 CAZ          0.3640     8.1750     1.2260 c3         1 E72       0.149600
     27 CBA          2.0370     8.7370    -0.3660 c3         1 E72       0.149600
     28 CBB          5.9310    -1.5210    -0.4420 c3         1 E72       0.160600
     29 CBC          7.1930    -2.3500    -0.5500 c3         1 E72      -0.080400
     30 CBD          8.4320    -1.4640    -0.6130 c3         1 E72      -0.075400
     31 CBE          9.7230    -2.2670    -0.6990 c3         1 E72      -0.078400
     32 CBF         10.9600    -1.3820    -0.7470 c3         1 E72       0.148800
     33 NBG         12.1730    -2.1830    -0.8180 n8         1 E72      -0.994200
     34 CBH         -7.0430    -0.9330     0.7960 c3         1 E72       0.172800
     35 CBI         -7.8670    -1.2060    -0.4550 c3         1 E72      -0.076400
     36 CBJ         -9.3490    -0.9300    -0.2360 c3         1 E72      -0.076400
     37 CBK        -10.1990    -1.2400    -1.4610 c3         1 E72      -0.078400
     38 CBL        -11.6760    -0.9510    -1.2420 c3         1 E72       0.149800
     39 NBM        -12.4560    -1.2800    -2.4270 n8         1 E72      -0.995200
     40 HAC          0.4910    -3.1560     0.3180 ha         1 E72       0.107000
     41 HAF          4.0720     0.2040    -0.2890 ha         1 E72       0.137000
     42 HAM          2.4830    -6.0920    -0.0600 h1         1 E72       0.038033
     43 HAMA         1.4690    -5.1180     1.0190 h1         1 E72       0.038033
     44 HAMB         1.2160    -5.0510    -0.7390 h1         1 E72       0.038033
     45 HNAN        -1.2710    -2.3070     0.5500 hn         1 E72       0.491000
     46 HAO         -2.7020     0.0840     1.4220 h1         1 E72       0.078700
     47 HAP         -3.5200    -2.8440     1.2070 hc         1 E72       0.054450
     48 HAPA        -3.0420    -2.0010     2.6800 hc         1 E72       0.054450
     49 HAQ         -5.5020    -2.1820     2.4710 h1         1 E72       0.032950
     50 HAQA        -4.9740    -0.5010     2.5170 h1         1 E72       0.032950
     51 HAS         -5.4720    -0.0440    -1.0870 h1         1 E72       0.032950
     52 HASA        -4.9490     0.7670     0.3850 h1         1 E72       0.032950
     53 HAT         -3.0130     0.1890    -1.0050 hc         1 E72       0.054450
     54 HATA        -3.4910    -1.5090    -1.0480 hc         1 E72       0.054450
     55 HNAU        -0.7230     3.1760     0.5100 hn         1 E72       0.497000
     56 HAV          1.8900     3.8870     1.0240 h1         1 E72       0.048700
     57 HAVA         1.8290     3.8310    -0.7270 h1         1 E72       0.048700
     58 HAW         -0.0990     5.4170    -0.7290 hc         1 E72       0.051200
     59 HAWA        -0.0820     5.4320     1.0290 hc         1 E72       0.051200
     60 HAX          2.2680     6.3470     0.9730 h1         1 E72       0.032200
     61 HAXA         2.2250     6.2820    -0.7830 h1         1 E72       0.032200
     62 HAZ          1.0420     8.2000     2.0950 h1         1 E72       0.030367
     63 HAZA        -0.0540     9.1750     1.1040 h1         1 E72       0.030367
     64 HAZB        -0.4630     7.5070     1.4680 h1         1 E72       0.030367
     65 HBA          2.4920     8.4590    -1.3180 h1         1 E72       0.030367
     66 HBAA         1.5840     9.7220    -0.4880 h1         1 E72       0.030367
     67 HBAB         2.8440     8.8310     0.3770 h1         1 E72       0.030367
     68 HBB          5.8230    -0.8720    -1.3190 h1         1 E72       0.037200
     69 HBBA         5.9760    -0.8760     0.4430 h1         1 E72       0.037200
     70 HBC          7.2650    -3.0180     0.3130 hc         1 E72       0.057700
     71 HBCA         7.1450    -2.9820    -1.4420 hc         1 E72       0.057700
     72 HBD          8.3610    -0.7940    -1.4760 hc         1 E72       0.038200
     73 HBDA         8.4640    -0.8200     0.2720 hc         1 E72       0.038200
     74 HBE          9.7910    -2.9360     0.1660 hc         1 E72       0.048200
     75 HBEA         9.7060    -2.9080    -1.5860 hc         1 E72       0.048200
     76 HBF         10.9120    -0.7530    -1.6400 h1         1 E72       0.025700
     77 HBFA        10.9370    -0.6960     0.1130 h1         1 E72       0.025700
     78 HNBG        12.9780    -1.5730    -0.8840 hn         1 E72       0.391500
     79 HNBA        12.2880    -2.6850     0.0550 hn         1 E72       0.391500
     80 HBH         -7.4240    -1.5710     1.5990 h1         1 E72       0.028200
     81 HBHA        -7.2090     0.1060     1.1300 h1         1 E72       0.028200
     82 HBI         -7.5150    -0.5980    -1.2940 hc         1 E72       0.047700
     83 HBIA        -7.7250    -2.2500    -0.7490 hc         1 E72       0.047700
     84 HBJ         -9.7100    -1.5210     0.6140 hc         1 E72       0.035700
     85 HBJA        -9.4860     0.1190     0.0480 hc         1 E72       0.035700
     86 HBK         -9.8370    -0.6530    -2.3130 hc         1 E72       0.047200
     87 HBKA       -10.0780    -2.2920    -1.7390 hc         1 E72       0.047200
     88 HBL        -12.0390    -1.5660    -0.4130 h1         1 E72       0.025200
     89 HBLA       -11.7890     0.0940    -0.9190 h1         1 E72       0.025200
     90 HNBM       -13.4370    -1.1170    -2.2410 hn         1 E72       0.391000
     91 HNBB       -12.2130    -0.6390    -3.1730 hn         1 E72       0.391000
@<TRIPOS>BOND
     1     1     2 ar  
     2     1     6 ar  
     3     2     3 ar  
     4     2    21 1   
     5     3     4 ar  
     6     4     5 ar  
     7     4    10 ar  
     8     5     6 ar  
     9     5     9 ar  
    10     6    14 1   
    11     7     8 ar  
    12     7    10 ar  
    13     7    11 1   
    14     8     9 ar  
    15     8    12 1   
    16     9    40 1   
    17    10    41 1   
    18    11    28 1   
    19    12    13 1   
    20    13    42 1   
    21    13    43 1   
    22    13    44 1   
    23    14    15 1   
    24    14    45 1   
    25    15    16 1   
    26    15    20 1   
    27    15    46 1   
    28    16    17 1   
    29    16    47 1   
    30    16    48 1   
    31    17    18 1   
    32    17    49 1   
    33    17    50 1   
    34    18    19 1   
    35    18    34 1   
    36    19    20 1   
    37    19    51 1   
    38    19    52 1   
    39    20    53 1   
    40    20    54 1   
    41    21    22 1   
    42    21    55 1   
    43    22    23 1   
    44    22    56 1   
    45    22    57 1   
    46    23    24 1   
    47    23    58 1   
    48    23    59 1   
    49    24    25 1   
    50    24    60 1   
    51    24    61 1   
    52    25    26 1   
    53    25    27 1   
    54    26    62 1   
    55    26    63 1   
    56    26    64 1   
    57    27    65 1   
    58    27    66 1   
    59    27    67 1   
    60    28    29 1   
    61    28    68 1   
    62    28    69 1   
    63    29    30 1   
    64    29    70 1   
    65    29    71 1   
    66    30    31 1   
    67    30    72 1   
    68    30    73 1   
    69    31    32 1   
    70    31    74 1   
    71    31    75 1   
    72    32    33 1   
    73    32    76 1   
    74    32    77 1   
    75    33    78 1   
    76    33    79 1   
    77    34    35 1   
    78    34    80 1   
    79    34    81 1   
    80    35    36 1   
    81    35    82 1   
    82    35    83 1   
    83    36    37 1   
    84    36    84 1   
    85    36    85 1   
    86    37    38 1   
    87    37    86 1   
    88    37    87 1   
    89    38    39 1   
    90    38    88 1   
    91    38    89 1   
    92    39    90 1   
    93    39    91 1   
@<TRIPOS>SUBSTRUCTURE
     1 E72         1 TEMP              0 ****  ****    0 ROOT
