@<TRIPOS>MOLECULE
E72
   91    93     1     0     0
SMALL
No Charge or Current Charge


@<TRIPOS>ATOM
      1 N1          -0.5090     0.9600     1.0870 nb         1 E72      -0.346000
      2 C2           0.5330     1.7260     0.7620 ca         1 E72       0.425900
      3 N3           1.7770     1.3190     0.4610 nb         1 E72      -0.294000
      4 C4           2.0140    -0.0060     0.4860 ca         1 E72       0.117000
      5 C5           0.9820    -0.9140     0.8170 ca         1 E72      -0.222000
      6 C6          -0.2880    -0.3630     1.1140 ca         1 E72       0.442900
      7 CAA          3.5640    -1.8800     0.2000 ca         1 E72       0.172100
      8 CAB          2.5350    -2.7910     0.5300 ca         1 E72       0.083100
      9 CAC          1.2440    -2.3050     0.8380 ca         1 E72      -0.129000
     10 CAF          3.2940    -0.4950     0.1810 ca         1 E72      -0.207000
     11 OAK          4.8210    -2.3810    -0.0980 os         1 E72      -0.326100
     12 OAL          2.8290    -4.1470     0.5400 os         1 E72      -0.320100
     13 CAM          1.8500    -5.1510     0.8610 c3         1 E72       0.145900
     14 NAN         -1.3770    -1.1660     1.4540 nu         1 E72      -0.927100
     15 CAO         -2.7930    -0.7530     1.4390 c6         1 E72       0.238500
     16 CAP         -3.6380    -1.7790     2.2220 c6         1 E72      -0.093400
     17 CAQ         -5.1350    -1.4080     2.1540 c6         1 E72       0.171800
     18 NAR         -5.6160    -1.3140     0.7470 n3         1 E72      -0.725600
     19 CAS         -4.8200    -0.3200    -0.0310 c6         1 E72       0.171800
     20 CAT         -3.3120    -0.6570    -0.0130 c6         1 E72      -0.093400
     21 NAU          0.2730     3.0840     0.7420 nu         1 E72      -0.927100
     22 CAV          1.2130     4.1680     0.4150 c3         1 E72       0.238800
     23 CAW          0.5180     5.5380     0.5150 c3         1 E72      -0.097400
     24 CAX          1.4750     6.7030     0.1790 c3         1 E72       0.168800
     25 NAY          0.8320     8.0400     0.1110 n3         1 E72      -0.712600
     26 CAZ          0.2240     8.4810     1.3900 c3         1 E72       0.149600
     27 CBA          1.7430     9.0660    -0.4450 c3         1 E72       0.149600
     28 CBB          5.9290    -1.5340    -0.4450 c3         1 E72       0.160600
     29 CBC          7.1460    -2.4420    -0.7060 c3         1 E72      -0.080400
     30 CBD          8.4160    -1.6500    -1.0910 c3         1 E72      -0.075400
     31 CBE          9.6390    -2.5570    -1.3540 c3         1 E72      -0.078400
     32 CBF         10.9030    -1.7610    -1.7380 c3         1 E72       0.148800
     33 NBG         12.0510    -2.6530    -1.9860 n8         1 E72      -0.994200
     34 CBH         -7.0820    -1.0820     0.6860 c3         1 E72       0.172800
     35 CBI         -7.7070    -1.2180    -0.7220 c3         1 E72      -0.076400
     36 CBJ         -9.2500    -1.1440    -0.7020 c3         1 E72      -0.076400
     37 CBK         -9.8820    -1.2770    -2.1060 c3         1 E72      -0.078400
     38 CBL        -11.4230    -1.2030    -2.0770 c3         1 E72       0.149800
     39 NBM        -11.9970    -1.3350    -3.4290 n8         1 E72      -0.995200
     40 HAC          0.4510    -3.0000     1.0910 ha         1 E72       0.107000
     41 HAF          4.0690     0.2220    -0.0700 ha         1 E72       0.137000
     42 HAM          2.3010    -6.1500     0.8060 h1         1 E72       0.038033
     43 HAMA         1.4630    -5.0080     1.8780 h1         1 E72       0.038033
     44 HAMB         1.0110    -5.1190     0.1540 h1         1 E72       0.038033
     45 HNAN        -1.1770    -2.1620     1.4820 hn         1 E72       0.491000
     46 HAO         -2.9160     0.2260     1.9290 h1         1 E72       0.078700
     47 HAP         -3.4950    -2.7880     1.8100 hc         1 E72       0.054450
     48 HAPA        -3.3140    -1.8130     3.2710 hc         1 E72       0.054450
     49 HAQ         -5.7090    -2.1700     2.7020 h1         1 E72       0.032950
     50 HAQA        -5.2930    -0.4500     2.6740 h1         1 E72       0.032950
     51 HAS         -5.1440    -0.2940    -1.0810 h1         1 E72       0.032950
     52 HASA        -4.9680     0.6910     0.3790 h1         1 E72       0.032950
     53 HAT         -2.7580     0.1140    -0.5650 hc         1 E72       0.054450
     54 HATA        -3.1440    -1.6060    -0.5390 hc         1 E72       0.054450
     55 HNAU        -0.6850     3.3400     0.9760 hn         1 E72       0.497000
     56 HAV          2.0670     4.1450     1.1070 h1         1 E72       0.048700
     57 HAVA         1.6010     4.0330    -0.6050 h1         1 E72       0.048700
     58 HAW         -0.3340     5.5640    -0.1760 hc         1 E72       0.051200
     59 HAWA         0.1260     5.6610     1.5310 hc         1 E72       0.051200
     60 HAX          2.2870     6.7150     0.9200 h1         1 E72       0.032200
     61 HAXA         1.9360     6.4790    -0.7930 h1         1 E72       0.032200
     62 HAZ          0.9790     8.5350     2.1860 h1         1 E72       0.030367
     63 HAZA        -0.2280     9.4760     1.2800 h1         1 E72       0.030367
     64 HAZB        -0.5710     7.7960     1.7110 h1         1 E72       0.030367
     65 HBA          2.1160     8.7610    -1.4320 h1         1 E72       0.030367
     66 HBAA         1.2220    10.0250    -0.5650 h1         1 E72       0.030367
     67 HBAB         2.6070     9.2230     0.2150 h1         1 E72       0.030367
     68 HBB          5.7050    -0.9520    -1.3480 h1         1 E72       0.037200
     69 HBBA         6.1580    -0.8400     0.3750 h1         1 E72       0.037200
     70 HBC          7.3480    -3.0350     0.1940 hc         1 E72       0.057700
     71 HBCA         6.9000    -3.1460    -1.5100 hc         1 E72       0.057700
     72 HBD          8.2110    -1.0540    -1.9890 hc         1 E72       0.038200
     73 HBDA         8.6580    -0.9440    -0.2860 hc         1 E72       0.038200
     74 HBE          9.8450    -3.1520    -0.4550 hc         1 E72       0.048200
     75 HBEA         9.3980    -3.2620    -2.1600 hc         1 E72       0.048200
     76 HBF         10.7100    -1.1770    -2.6490 h1         1 E72       0.025700
     77 HBFA        11.1650    -1.0670    -0.9280 h1         1 E72       0.025700
     78 HNBG        12.8830    -2.0810    -2.1770 hn         1 E72       0.391500
     79 HNBA        12.2900    -3.1390    -1.1130 hn         1 E72       0.391500
     80 HBH         -7.5830    -1.8110     1.3380 h1         1 E72       0.028200
     81 HBHA        -7.3200    -0.0850     1.0830 h1         1 E72       0.028200
     82 HBI         -7.3270    -0.4250    -1.3750 hc         1 E72       0.047700
     83 HBIA        -7.3970    -2.1760    -1.1580 hc         1 E72       0.047700
     84 HBJ         -9.6410    -1.9390    -0.0550 hc         1 E72       0.035700
     85 HBJA        -9.5580    -0.1890    -0.2570 hc         1 E72       0.035700
     86 HBK         -9.4930    -0.4800    -2.7520 hc         1 E72       0.047200
     87 HBKA        -9.5750    -2.2320    -2.5490 hc         1 E72       0.047200
     88 HBL        -11.8210    -2.0100    -1.4470 h1         1 E72       0.025200
     89 HBLA       -11.7400    -0.2400    -1.6530 h1         1 E72       0.025200
     90 HNBM       -13.0160    -1.2180    -3.3720 hn         1 E72       0.391000
     91 HNBB       -11.6950    -0.5360    -3.9990 hn         1 E72       0.391000
@<TRIPOS>BOND
     1     1     2 ar  
     2     1     6 ar  
     3     2     3 ar  
     4     2    21 1   
     5     3     4 ar  
     6     4     5 ar  
     7     4    10 ar  
     8     5     6 ar  
     9     5     9 ar  
    10     6    14 1   
    11     7     8 ar  
    12     7    10 ar  
    13     7    11 1   
    14     8     9 ar  
    15     8    12 1   
    16     9    40 1   
    17    10    41 1   
    18    11    28 1   
    19    12    13 1   
    20    13    42 1   
    21    13    43 1   
    22    13    44 1   
    23    14    15 1   
    24    14    45 1   
    25    15    16 1   
    26    15    20 1   
    27    15    46 1   
    28    16    17 1   
    29    16    47 1   
    30    16    48 1   
    31    17    18 1   
    32    17    49 1   
    33    17    50 1   
    34    18    19 1   
    35    18    34 1   
    36    19    20 1   
    37    19    51 1   
    38    19    52 1   
    39    20    53 1   
    40    20    54 1   
    41    21    22 1   
    42    21    55 1   
    43    22    23 1   
    44    22    56 1   
    45    22    57 1   
    46    23    24 1   
    47    23    58 1   
    48    23    59 1   
    49    24    25 1   
    50    24    60 1   
    51    24    61 1   
    52    25    26 1   
    53    25    27 1   
    54    26    62 1   
    55    26    63 1   
    56    26    64 1   
    57    27    65 1   
    58    27    66 1   
    59    27    67 1   
    60    28    29 1   
    61    28    68 1   
    62    28    69 1   
    63    29    30 1   
    64    29    70 1   
    65    29    71 1   
    66    30    31 1   
    67    30    72 1   
    68    30    73 1   
    69    31    32 1   
    70    31    74 1   
    71    31    75 1   
    72    32    33 1   
    73    32    76 1   
    74    32    77 1   
    75    33    78 1   
    76    33    79 1   
    77    34    35 1   
    78    34    80 1   
    79    34    81 1   
    80    35    36 1   
    81    35    82 1   
    82    35    83 1   
    83    36    37 1   
    84    36    84 1   
    85    36    85 1   
    86    37    38 1   
    87    37    86 1   
    88    37    87 1   
    89    38    39 1   
    90    38    88 1   
    91    38    89 1   
    92    39    90 1   
    93    39    91 1   
@<TRIPOS>SUBSTRUCTURE
     1 E72         1 TEMP              0 ****  ****    0 ROOT
