@<TRIPOS>MOLECULE
E74
   78    81     1     0     0
SMALL
abcg2


@<TRIPOS>ATOM
      1 C3          31.3230     5.8540    14.5160 c3         1 E74       0.075700
      2 C5          32.4080     6.7500    15.1300 c3         1 E74      -0.049100
      3 C8          31.8590     8.0240    15.7140 ca         1 E74      -0.079300
      4 C11         31.5400     9.4860    17.6390 ca         1 E74      -0.079300
      5 C12         30.8500    10.3770    16.8250 ca         1 E74      -0.106000
      6 C18         31.7460     9.7680    19.1060 c3         1 E74      -0.029100
      7 C14         30.6700    10.1060    15.4730 ca         1 E74      -0.101000
      8 C16         31.1700     8.9390    14.9180 ca         1 E74      -0.098000
      9 C21         31.2160     8.6550    20.0130 c3         1 E74      -0.068400
     10 C24         29.7130     8.4360    19.8740 c3         1 E74      -0.112400
     11 C27         29.2850     7.0610    20.3880 c3         1 E74       0.238800
     12 C32         27.5950     6.3060    18.7590 ca         1 E74       0.664900
     13 C34         25.9090     5.6170    17.3690 ca         1 E74       0.634300
     14 C35         26.7340     5.5900    16.2470 ca         1 E74      -0.265000
     15 C37         28.0690     5.9290    16.4460 ca         1 E74      -0.037600
     16 C38         28.5260     6.2810    17.7000 ca         1 E74      -0.268000
     17 C40         28.9730     5.9950    15.2500 c          1 E74       0.612700
     18 C43         24.0380     4.8800    16.1140 c3         1 E74       0.151900
     19 C47         31.8890     4.4960    14.0580 c3         1 E74       0.167300
     20 C51         30.8600     3.7050    13.2630 c3         1 E74       0.159800
     21 C56         30.5790     1.6810    11.9500 c3         1 E74       0.217100
     22 C59         30.9430     2.1360    10.5540 ca         1 E74      -0.089300
     23 C60         32.0970     2.8670    10.3060 ca         1 E74      -0.083000
     24 C62         32.4360     3.2880     9.0200 ca         1 E74      -0.077300
     25 C63         31.6030     2.9370     7.9640 ca         1 E74      -0.109000
     26 C65         30.4480     2.1960     8.1950 ca         1 E74      -0.114000
     27 C67         30.1140     1.8060     9.4820 ca         1 E74      -0.116000
     28 C69         33.6600     4.1460     8.7960 c3         1 E74      -0.013400
     29 C71         33.4660     5.5270     9.4250 c3         1 E74      -0.086600
     30 C75         34.9330     3.4860     9.3250 c3         1 E74      -0.086600
     31 C9          32.0330     8.3140    17.0620 ca         1 E74      -0.113000
     32 N1          30.2540     5.6600    15.4720 ns         1 E74      -0.499900
     33 N30         27.9500     6.6720    20.0080 nu         1 E74      -0.943100
     34 N33         26.3180     5.9700    18.5740 nb         1 E74      -0.782000
     35 N54         31.3270     2.3610    12.9840 n7         1 E74      -0.866400
     36 O41         28.5360     6.3420    14.1630 o          1 E74      -0.593100
     37 O42         24.6100     5.2950    17.3410 os         1 E74      -0.448300
     38 O49         33.0220     4.6770    13.2390 oh         1 E74      -0.642000
     39 H1          30.8940     6.3610    13.6500 h1         1 E74       0.097700
     40 H2          32.9450     6.1990    15.9100 hc         1 E74       0.052200
     41 H3          33.1400     6.9870    14.3550 hc         1 E74       0.052200
     42 H4          30.4510    11.2910    17.2470 ha         1 E74       0.112000
     43 H5          32.8130     9.9040    19.3040 hc         1 E74       0.049200
     44 H6          31.2650    10.7140    19.3640 hc         1 E74       0.049200
     45 H7          30.1340    10.8120    14.8500 ha         1 E74       0.117000
     46 H8          31.0280     8.7450    13.8610 ha         1 E74       0.121000
     47 H9          31.7430     7.7260    19.7740 hc         1 E74       0.038200
     48 H10         31.4720     8.8830    21.0500 hc         1 E74       0.038200
     49 H11         29.4340     8.5290    18.8210 hc         1 E74       0.057200
     50 H12         29.1620     9.2180    20.4020 hc         1 E74       0.057200
     51 H13         29.3360     7.0310    21.4770 h1         1 E74       0.044700
     52 H14         29.9940     6.3040    20.0350 h1         1 E74       0.044700
     53 H15         26.3770     5.3220    15.2650 ha         1 E74       0.144000
     54 H16         29.5500     6.5870    17.8540 ha         1 E74       0.129000
     55 H17         22.9910     4.6700    16.3190 h1         1 E74       0.045367
     56 H18         24.0980     5.6590    15.3510 h1         1 E74       0.045367
     57 H19         24.5110     3.9720    15.7320 h1         1 E74       0.045367
     58 H20         32.1550     3.9240    14.9610 h1         1 E74       0.022700
     59 H21         30.6850     4.2230    12.3160 h1         1 E74       0.053200
     60 H22         29.9020     3.7060    13.7970 h1         1 E74       0.053200
     61 H23         29.4880     1.7720    12.0710 h1         1 E74       0.035200
     62 H24         30.7970     0.6120    12.0320 h1         1 E74       0.035200
     63 H25         32.7270     3.1360    11.1460 ha         1 E74       0.144000
     64 H26         31.8500     3.2510     6.9560 ha         1 E74       0.108000
     65 H27         29.8030     1.9320     7.3660 ha         1 E74       0.108000
     66 H28         29.2050     1.2420     9.6580 ha         1 E74       0.105000
     67 H29         33.7780     4.2800     7.7160 hc         1 E74       0.043700
     68 H30         32.5920     6.0320     9.0090 hc         1 E74       0.035367
     69 H31         33.3220     5.4500    10.5050 hc         1 E74       0.035367
     70 H32         34.3360     6.1620     9.2460 hc         1 E74       0.035367
     71 H33         35.0970     2.5080     8.8710 hc         1 E74       0.035367
     72 H34         35.8040     4.1060     9.1060 hc         1 E74       0.035367
     73 H35         34.8910     3.3500    10.4070 hc         1 E74       0.035367
     74 H36         32.5750     7.6040    17.6780 ha         1 E74       0.103000
     75 H37         30.5120     5.3240    16.3870 hn         1 E74       0.315500
     76 H38         27.2130     6.7180    20.6920 hn         1 E74       0.508000
     77 H39         31.2910     1.8100    13.8310 hn         1 E74       0.408000
     78 H41         33.7860     4.8520    13.7960 ho         1 E74       0.438000
@<TRIPOS>BOND
     1     1     2 1   
     2     1    19 1   
     3     1    32 1   
     4     1    39 1   
     5     2     3 1   
     6     2    40 1   
     7     2    41 1   
     8     3     8 ar  
     9     3    31 ar  
    10     4     5 ar  
    11     4     6 1   
    12     4    31 ar  
    13     5     7 ar  
    14     5    42 1   
    15     6     9 1   
    16     6    43 1   
    17     6    44 1   
    18     7     8 ar  
    19     7    45 1   
    20     8    46 1   
    21     9    10 1   
    22     9    47 1   
    23     9    48 1   
    24    10    11 1   
    25    10    49 1   
    26    10    50 1   
    27    11    33 1   
    28    11    51 1   
    29    11    52 1   
    30    12    16 ar  
    31    12    33 1   
    32    12    34 ar  
    33    13    14 ar  
    34    13    34 ar  
    35    13    37 1   
    36    14    15 ar  
    37    14    53 1   
    38    15    16 ar  
    39    15    17 1   
    40    16    54 1   
    41    17    32 1   
    42    17    36 2   
    43    18    37 1   
    44    18    55 1   
    45    18    56 1   
    46    18    57 1   
    47    19    20 1   
    48    19    38 1   
    49    19    58 1   
    50    20    35 1   
    51    20    59 1   
    52    20    60 1   
    53    21    22 1   
    54    21    35 1   
    55    21    61 1   
    56    21    62 1   
    57    22    23 ar  
    58    22    27 ar  
    59    23    24 ar  
    60    23    63 1   
    61    24    25 ar  
    62    24    28 1   
    63    25    26 ar  
    64    25    64 1   
    65    26    27 ar  
    66    26    65 1   
    67    27    66 1   
    68    28    29 1   
    69    28    30 1   
    70    28    67 1   
    71    29    68 1   
    72    29    69 1   
    73    29    70 1   
    74    30    71 1   
    75    30    72 1   
    76    30    73 1   
    77    31    74 1   
    78    32    75 1   
    79    33    76 1   
    80    35    77 1   
    81    38    78 1   
@<TRIPOS>SUBSTRUCTURE
     1 E74         1 TEMP              0 ****  ****    0 ROOT
