@<TRIPOS>MOLECULE
E74
   78    81     1     0     0
SMALL
No Charge or Current Charge


@<TRIPOS>ATOM
      1 C3          31.9440     5.8890    14.9100 c3         1 E74       0.075700
      2 C5          32.8620     6.9070    15.6440 c3         1 E74      -0.049100
      3 C8          32.1250     8.1490    16.1470 ca         1 E74      -0.079300
      4 C11         31.3410     9.5450    18.0050 ca         1 E74      -0.079300
      5 C12         30.7240    10.4100    17.0800 ca         1 E74      -0.106000
      6 C18         31.2260     9.8150    19.5070 c3         1 E74      -0.029100
      7 C14         30.8070    10.1510    15.7020 ca         1 E74      -0.101000
      8 C16         31.5030     9.0240    15.2360 ca         1 E74      -0.098000
      9 C21         30.5870     8.6470    20.2970 c3         1 E74      -0.068400
     10 C24         29.1490     8.3010    19.8410 c3         1 E74      -0.112400
     11 C27         28.6460     6.9480    20.3970 c3         1 E74       0.238800
     12 C32         27.3740     6.1650    18.3410 ca         1 E74       0.664900
     13 C34         25.8920     5.8390    16.6500 ca         1 E74       0.634300
     14 C35         26.9380     5.6780    15.7150 ca         1 E74      -0.265000
     15 C37         28.2820     5.7570    16.1360 ca         1 E74      -0.037600
     16 C38         28.4840     5.9870    17.5110 ca         1 E74      -0.268000
     17 C40         29.4300     5.6560    15.1420 c          1 E74       0.612700
     18 C43         24.1600     5.5060    14.9240 c3         1 E74       0.151900
     19 C47         32.6550     4.5310    14.6250 c3         1 E74       0.167300
     20 C51         31.7800     3.5000    13.8610 c3         1 E74       0.159800
     21 C56         31.9460     1.4630    12.4040 c3         1 E74       0.217100
     22 C59         31.4150     2.1600    11.1550 ca         1 E74      -0.089300
     23 C60         32.3100     2.7550    10.2440 ca         1 E74      -0.083000
     24 C62         31.8350     3.4120     9.0890 ca         1 E74      -0.077300
     25 C63         30.4460     3.4650     8.8540 ca         1 E74      -0.109000
     26 C65         29.5490     2.8730     9.7580 ca         1 E74      -0.114000
     27 C67         30.0310     2.2230    10.9060 ca         1 E74      -0.116000
     28 C69         32.8060     4.0670     8.1050 c3         1 E74      -0.013400
     29 C71         33.5930     5.2190     8.7690 c3         1 E74      -0.086600
     30 C75         33.7510     3.0270     7.4630 c3         1 E74      -0.086600
     31 C9          32.0470     8.4200    17.5280 ca         1 E74      -0.113000
     32 N1          30.7000     5.7140    15.6780 ns         1 E74      -0.499900
     33 N30         27.4610     6.4760    19.6660 nu         1 E74      -0.943100
     34 N33         26.1140     6.0910    17.9490 nb         1 E74      -0.782000
     35 N54         32.6350     2.4090    13.3050 n7         1 E74      -0.866400
     36 O41         29.2470     5.5600    13.9360 o          1 E74      -0.593100
     37 O42         24.5680     5.7660    16.2790 os         1 E74      -0.448300
     38 O49         33.8370     4.7180    13.8390 oh         1 E74      -0.642000
     39 H1          31.6800     6.3320    13.9400 h1         1 E74       0.097700
     40 H2          33.3490     6.3970    16.4840 hc         1 E74       0.052200
     41 H3          33.6720     7.2110    14.9690 hc         1 E74       0.052200
     42 H4          30.1740    11.2810    17.4280 ha         1 E74       0.112000
     43 H5          32.2250    10.0110    19.9180 hc         1 E74       0.049200
     44 H6          30.6410    10.7250    19.6920 hc         1 E74       0.049200
     45 H7          30.3260    10.8220    14.9940 ha         1 E74       0.117000
     46 H8          31.5560     8.8290    14.1670 ha         1 E74       0.121000
     47 H9          31.2240     7.7600    20.1970 hc         1 E74       0.038200
     48 H10         30.5730     8.8990    21.3650 hc         1 E74       0.038200
     49 H11         29.1260     8.2790    18.7470 hc         1 E74       0.057200
     50 H12         28.4610     9.1000    20.1450 hc         1 E74       0.057200
     51 H13         28.4160     7.0600    21.4650 h1         1 E74       0.044700
     52 H14         29.4440     6.1980    20.3100 h1         1 E74       0.044700
     53 H15         26.7230     5.5020    14.6670 ha         1 E74       0.144000
     54 H16         29.4790     6.0660    17.9320 ha         1 E74       0.129000
     55 H17         23.0650     5.4850    14.8530 h1         1 E74       0.045367
     56 H18         24.5270     6.2890    14.2470 h1         1 E74       0.045367
     57 H19         24.5390     4.5350    14.5800 h1         1 E74       0.045367
     58 H20         32.9350     4.0800    15.5870 h1         1 E74       0.022700
     59 H21         31.2630     4.0290    13.0490 h1         1 E74       0.053200
     60 H22         31.0120     3.0980    14.5350 h1         1 E74       0.053200
     61 H23         31.1180     0.9700    12.9320 h1         1 E74       0.035200
     62 H24         32.6430     0.6730    12.0910 h1         1 E74       0.035200
     63 H25         33.3780     2.7080    10.4430 ha         1 E74       0.144000
     64 H26         30.0590     3.9680     7.9700 ha         1 E74       0.108000
     65 H27         28.4790     2.9200     9.5700 ha         1 E74       0.108000
     66 H28         29.3280     1.7720    11.6020 ha         1 E74       0.105000
     67 H29         32.2300     4.5140     7.2840 hc         1 E74       0.043700
     68 H30         32.9030     5.9570     9.1970 hc         1 E74       0.035367
     69 H31         34.2390     4.8470     9.5730 hc         1 E74       0.035367
     70 H32         34.2230     5.7320     8.0330 hc         1 E74       0.035367
     71 H33         33.1730     2.2310     6.9790 hc         1 E74       0.035367
     72 H34         34.3830     3.4980     6.7010 hc         1 E74       0.035367
     73 H35         34.4060     2.5690     8.2130 hc         1 E74       0.035367
     74 H36         32.5290     7.7500    18.2350 ha         1 E74       0.103000
     75 H37         30.7540     5.8040    16.6840 hn         1 E74       0.315500
     76 H38         26.5450     6.6380    20.0740 hn         1 E74       0.508000
     77 H39         33.0080     1.8650    14.0940 hn         1 E74       0.408000
     78 H41         33.8400     3.8970    13.2860 ho         1 E74       0.438000
@<TRIPOS>BOND
     1     1     2 1   
     2     1    19 1   
     3     1    32 1   
     4     1    39 1   
     5     2     3 1   
     6     2    40 1   
     7     2    41 1   
     8     3     8 ar  
     9     3    31 ar  
    10     4     5 ar  
    11     4     6 1   
    12     4    31 ar  
    13     5     7 ar  
    14     5    42 1   
    15     6     9 1   
    16     6    43 1   
    17     6    44 1   
    18     7     8 ar  
    19     7    45 1   
    20     8    46 1   
    21     9    10 1   
    22     9    47 1   
    23     9    48 1   
    24    10    11 1   
    25    10    49 1   
    26    10    50 1   
    27    11    33 1   
    28    11    51 1   
    29    11    52 1   
    30    12    16 ar  
    31    12    33 1   
    32    12    34 ar  
    33    13    14 ar  
    34    13    34 ar  
    35    13    37 1   
    36    14    15 ar  
    37    14    53 1   
    38    15    16 ar  
    39    15    17 1   
    40    16    54 1   
    41    17    32 1   
    42    17    36 2   
    43    18    37 1   
    44    18    55 1   
    45    18    56 1   
    46    18    57 1   
    47    19    20 1   
    48    19    38 1   
    49    19    58 1   
    50    20    35 1   
    51    20    59 1   
    52    20    60 1   
    53    21    22 1   
    54    21    35 1   
    55    21    61 1   
    56    21    62 1   
    57    22    23 ar  
    58    22    27 ar  
    59    23    24 ar  
    60    23    63 1   
    61    24    25 ar  
    62    24    28 1   
    63    25    26 ar  
    64    25    64 1   
    65    26    27 ar  
    66    26    65 1   
    67    27    66 1   
    68    28    29 1   
    69    28    30 1   
    70    28    67 1   
    71    29    68 1   
    72    29    69 1   
    73    29    70 1   
    74    30    71 1   
    75    30    72 1   
    76    30    73 1   
    77    31    74 1   
    78    32    75 1   
    79    33    76 1   
    80    35    77 1   
    81    38    78 1   
@<TRIPOS>SUBSTRUCTURE
     1 E74         1 TEMP              0 ****  ****    0 ROOT
