@<TRIPOS>MOLECULE
E75
   48    51     1     0     0
SMALL
No Charge or Current Charge


@<TRIPOS>ATOM
      1 O2           7.4640    -0.3290    -0.6560 oh         1 E75      -0.657000
      2 C10          6.0670    -0.1080    -0.8580 c6         1 E75       0.168300
      3 C9           5.5390     0.9240     0.1700 c6         1 E75      -0.090900
      4 C8           4.0080     1.1310     0.0250 c6         1 E75      -0.089900
      5 C11          5.3010    -1.4490    -0.7310 c6         1 E75      -0.090900
      6 C12          3.7710    -1.2410    -0.8740 c6         1 E75      -0.089900
      7 C7           3.2440    -0.2110     0.1600 c6         1 E75       0.242500
      8 N4           1.8060     0.0300    -0.0520 nu         1 E75      -0.922100
      9 C4           0.7660    -0.7990     0.3470 ca         1 E75       0.392900
     10 N2          -0.4520    -0.4200    -0.0720 nb         1 E75      -0.250000
     11 N3           1.0600    -1.8770     1.0990 nb         1 E75      -0.247000
     12 C5           0.0230    -2.6550     1.4580 ca         1 E75       0.152900
     13 C6          -1.2890    -2.3460     1.0710 ca         1 E75      -0.291000
     14 C3          -1.4960    -1.1820     0.3110 ca         1 E75       0.260500
     15 C2          -2.8160    -0.8300    -0.2010 cc         1 E75      -0.287500
     16 C13         -3.5840    -1.7310    -0.8700 cd         1 E75       0.215300
     17 C14         -3.3850    -3.1910    -1.1780 c3         1 E75      -0.142400
     18 O1          -4.6670    -1.0960    -1.4090 os         1 E75      -0.067700
     19 C1          -3.4510     0.4220    -0.4020 cc         1 E75       0.368500
     20 N1          -4.5730     0.3030    -1.1030 nd         1 E75      -0.363300
     21 C15         -3.0490     1.7260     0.1680 ca         1 E75      -0.128500
     22 C20         -3.6040     2.9240    -0.3450 ca         1 E75      -0.071000
     23 C19         -3.2620     4.1730     0.2020 ca         1 E75      -0.120000
     24 C18         -2.3800     4.2480     1.2890 ca         1 E75      -0.099000
     25 C17         -1.8510     3.0700     1.8370 ca         1 E75      -0.120000
     26 C16         -2.1900     1.8210     1.2900 ca         1 E75      -0.071000
     27 H10          7.9140     0.5260    -0.8320 ho         1 E75       0.442000
     28 H9           5.8990     0.2910    -1.8700 h1         1 E75       0.026700
     29 H8           5.7680     0.5870     1.1910 hc         1 E75       0.053200
     30 H7           6.0530     1.8860     0.0360 hc         1 E75       0.053200
     31 H6           3.6590     1.8390     0.7890 hc         1 E75       0.048700
     32 H5           3.7940     1.5910    -0.9500 hc         1 E75       0.048700
     33 H12          5.6510    -2.1520    -1.5000 hc         1 E75       0.053200
     34 H11          5.5190    -1.9140     0.2400 hc         1 E75       0.053200
     35 H14          3.5410    -0.9000    -1.8930 hc         1 E75       0.048700
     36 H13          3.2570    -2.2030    -0.7440 hc         1 E75       0.048700
     37 H4           3.4240    -0.5980     1.1770 h1         1 E75       0.085700
     38 H3           1.5260     0.8300    -0.6180 hn         1 E75       0.503000
     39 H1           0.2480    -3.5340     2.0600 h4         1 E75       0.019100
     40 H2          -2.1170    -2.9820     1.3710 ha         1 E75       0.133000
     41 H16         -3.9850    -3.4960    -2.0440 hc         1 E75       0.067033
     42 H15         -2.3360    -3.4090    -1.4100 hc         1 E75       0.067033
     43 H17         -3.6850    -3.8150    -0.3290 hc         1 E75       0.067033
     44 H22         -4.2910     2.8980    -1.1880 ha         1 E75       0.120500
     45 H21         -3.6860     5.0830    -0.2170 ha         1 E75       0.113500
     46 H20         -2.1180     5.2150     1.7150 ha         1 E75       0.111000
     47 H19         -1.1860     3.1230     2.6960 ha         1 E75       0.113500
     48 H18         -1.8010     0.9310     1.7730 ha         1 E75       0.120500
@<TRIPOS>BOND
     1     1     2 1   
     2     1    27 1   
     3     2     3 1   
     4     2     5 1   
     5     2    28 1   
     6     3     4 1   
     7     3    29 1   
     8     3    30 1   
     9     4     7 1   
    10     4    31 1   
    11     4    32 1   
    12     5     6 1   
    13     5    33 1   
    14     5    34 1   
    15     6     7 1   
    16     6    35 1   
    17     6    36 1   
    18     7     8 1   
    19     7    37 1   
    20     8     9 1   
    21     8    38 1   
    22     9    10 ar  
    23     9    11 ar  
    24    10    14 ar  
    25    11    12 ar  
    26    12    13 ar  
    27    12    39 1   
    28    13    14 ar  
    29    13    40 1   
    30    14    15 1   
    31    15    16 2   
    32    15    19 1   
    33    16    17 1   
    34    16    18 1   
    35    17    41 1   
    36    17    42 1   
    37    17    43 1   
    38    18    20 1   
    39    19    20 2   
    40    19    21 1   
    41    21    22 ar  
    42    21    26 ar  
    43    22    23 ar  
    44    22    44 1   
    45    23    24 ar  
    46    23    45 1   
    47    24    25 ar  
    48    24    46 1   
    49    25    26 ar  
    50    25    47 1   
    51    26    48 1   
@<TRIPOS>SUBSTRUCTURE
     1 E75         1 TEMP              0 ****  ****    0 ROOT
