@<TRIPOS>MOLECULE
E75
   48    51     1     0     0
SMALL
abcg2


@<TRIPOS>ATOM
      1 O2           7.2980     0.1210    -0.4750 oh         1 E75      -0.657000
      2 C10          5.9120     0.3490    -0.6300 c6         1 E75       0.168300
      3 C9           5.2700     0.8830     0.6470 c6         1 E75      -0.090900
      4 C8           3.7670     1.0710     0.4710 c6         1 E75      -0.089900
      5 C11          5.2600    -0.9610    -1.0440 c6         1 E75      -0.090900
      6 C12          3.7560    -0.7870    -1.2220 c6         1 E75      -0.089900
      7 C7           3.1050    -0.2380     0.0490 c6         1 E75       0.242500
      8 N4           1.6820    -0.0430    -0.1120 nu         1 E75      -0.922100
      9 C4           0.7300    -0.9450     0.1830 ca         1 E75       0.392900
     10 N2          -0.5260    -0.5940    -0.1210 nb         1 E75      -0.250000
     11 N3           1.0930    -2.0980     0.7570 nb         1 E75      -0.247000
     12 C5           0.1070    -2.9150     1.0920 ca         1 E75       0.152900
     13 C6          -1.2290    -2.6310     0.8730 ca         1 E75      -0.291000
     14 C3          -1.4950    -1.4230     0.2290 ca         1 E75       0.260500
     15 C2          -2.8590    -1.0060    -0.0920 cc         1 E75      -0.287500
     16 C13         -3.9070    -1.7930    -0.4670 cd         1 E75       0.215300
     17 C14         -4.0730    -3.2520    -0.6490 c3         1 E75      -0.142400
     18 O1          -4.9560    -1.0190    -0.7330 os         1 E75      -0.067700
     19 C1          -3.3920     0.3180    -0.1660 cc         1 E75       0.368500
     20 N1          -4.6400     0.2900    -0.5380 nd         1 E75      -0.363300
     21 C15         -2.7580     1.6100     0.1270 ca         1 E75      -0.128500
     22 C20         -2.9770     2.6960    -0.7180 ca         1 E75      -0.071000
     23 C19         -2.4050     3.9290    -0.4380 ca         1 E75      -0.120000
     24 C18         -1.6150     4.0890     0.6920 ca         1 E75      -0.099000
     25 C17         -1.4020     3.0110     1.5430 ca         1 E75      -0.120000
     26 C16         -1.9680     1.7780     1.2620 ca         1 E75      -0.071000
     27 H10          7.7100     0.9460    -0.2020 ho         1 E75       0.442000
     28 H9           5.7310     1.0850    -1.4310 h1         1 E75       0.026700
     29 H8           5.4600     0.1770     1.4630 hc         1 E75       0.053200
     30 H7           5.7320     1.8330     0.9310 hc         1 E75       0.053200
     31 H6           3.3180     1.4300     1.3990 hc         1 E75       0.048700
     32 H5           3.5780     1.8370    -0.2910 hc         1 E75       0.048700
     33 H12          5.7080    -1.3260    -1.9720 hc         1 E75       0.053200
     34 H11          5.4550    -1.7170    -0.2750 hc         1 E75       0.053200
     35 H14          3.5570    -0.0950    -2.0480 hc         1 E75       0.048700
     36 H13          3.2930    -1.7400    -1.4880 hc         1 E75       0.048700
     37 H4           3.2460    -0.9660     0.8510 h1         1 E75       0.085700
     38 H3           1.3660     0.7890    -0.5840 hn         1 E75       0.503000
     39 H1           0.3960    -3.8460     1.5690 h4         1 E75       0.019100
     40 H2          -2.0060    -3.3070     1.1980 ha         1 E75       0.133000
     41 H16         -4.8200    -3.4690    -1.4110 hc         1 E75       0.067033
     42 H15         -3.1320    -3.7090    -0.9470 hc         1 E75       0.067033
     43 H17         -4.3940    -3.7280     0.2800 hc         1 E75       0.067033
     44 H22         -3.5850     2.5740    -1.6060 ha         1 E75       0.120500
     45 H21         -2.5770     4.7630    -1.1050 ha         1 E75       0.113500
     46 H20         -1.1680     5.0500     0.9100 ha         1 E75       0.111000
     47 H19         -0.7940     3.1320     2.4300 ha         1 E75       0.113500
     48 H18         -1.8010     0.9490     1.9370 ha         1 E75       0.120500
@<TRIPOS>BOND
     1     1     2 1   
     2     1    27 1   
     3     2     3 1   
     4     2     5 1   
     5     2    28 1   
     6     3     4 1   
     7     3    29 1   
     8     3    30 1   
     9     4     7 1   
    10     4    31 1   
    11     4    32 1   
    12     5     6 1   
    13     5    33 1   
    14     5    34 1   
    15     6     7 1   
    16     6    35 1   
    17     6    36 1   
    18     7     8 1   
    19     7    37 1   
    20     8     9 1   
    21     8    38 1   
    22     9    10 ar  
    23     9    11 ar  
    24    10    14 ar  
    25    11    12 ar  
    26    12    13 ar  
    27    12    39 1   
    28    13    14 ar  
    29    13    40 1   
    30    14    15 1   
    31    15    16 2   
    32    15    19 1   
    33    16    17 1   
    34    16    18 1   
    35    17    41 1   
    36    17    42 1   
    37    17    43 1   
    38    18    20 1   
    39    19    20 2   
    40    19    21 1   
    41    21    22 ar  
    42    21    26 ar  
    43    22    23 ar  
    44    22    44 1   
    45    23    24 ar  
    46    23    45 1   
    47    24    25 ar  
    48    24    46 1   
    49    25    26 ar  
    50    25    47 1   
    51    26    48 1   
@<TRIPOS>SUBSTRUCTURE
     1 E75         1 TEMP              0 ****  ****    0 ROOT
