@<TRIPOS>MOLECULE
E77
   62    64     1     0     0
SMALL
bcc


@<TRIPOS>ATOM
      1 C5          31.9640     4.7690    14.5590 c3         1 E77       0.094100
      2 C13         29.0700     6.3280    15.3890 c          1 E77       0.686700
      3 C15         28.2450     7.1390    17.6110 ca         1 E77      -0.186000
      4 C17         27.2260     7.2670    18.5510 ca         1 E77       0.137100
      5 C20         25.7570     5.9940    17.1200 ca         1 E77      -0.116600
      6 C21         26.7590     5.8980    16.1600 ca         1 E77      -0.092000
      7 C26         23.9840     6.6360    14.9160 c3         1 E77       0.087300
      8 C14         28.0040     6.4480    16.4250 ca         1 E77      -0.119600
      9 C18         25.9930     6.6580    18.3120 ca         1 E77      -0.106000
     10 C2          30.9120     4.0320    13.7300 c3         1 E77       0.142400
     11 C23         24.4480     5.2860    16.9400 c          1 E77       0.679700
     12 C30         22.5820     4.7210    15.5270 c3         1 E77       0.087300
     13 C35         28.5030     8.6750    20.0270 c3         1 E77       0.140400
     14 C38         29.5470     7.7920    20.6970 c3         1 E77      -0.104400
     15 C41         30.6390     8.5890    21.4150 c3         1 E77      -0.093400
     16 C44         31.7960     9.0460    20.5490 c3         1 E77       0.144400
     17 C48         31.5550     9.6300    18.2010 ca         1 E77       0.148100
     18 C49         31.9800     8.4020    17.6940 ca         1 E77      -0.223000
     19 C51         32.1600     8.2220    16.3240 ca         1 E77      -0.042300
     20 C52         31.8960     9.2710    15.4510 ca         1 E77      -0.156000
     21 C54         31.4550    10.4870    15.9550 ca         1 E77      -0.086000
     22 C56         31.2850    10.6750    17.3160 ca         1 E77      -0.165000
     23 C58         32.6050     6.8810    15.8060 c3         1 E77      -0.051100
     24 C9          31.5020     6.1540    15.0310 c3         1 E77       0.080700
     25 N11         30.3050     6.0930    15.8470 ns         1 E77      -0.550900
     26 N25         23.7690     5.5050    15.8000 n          1 E77      -0.471800
     27 O1          30.4510     4.7800    12.6340 oh         1 E77      -0.608800
     28 O24         24.0620     4.5110    17.8060 o          1 E77      -0.592100
     29 O34         27.3200     7.9530    19.7000 os         1 E77      -0.324900
     30 O47         31.3530     9.9070    19.5060 os         1 E77      -0.338900
     31 O7          32.2720     3.9260    15.6480 oh         1 E77      -0.594800
     32 H1          32.8450     4.9340    13.9230 h1         1 E77       0.044700
     33 H2          29.2150     7.5980    17.7690 ha         1 E77       0.146000
     34 H3          26.5820     5.3790    15.2270 ha         1 E77       0.158000
     35 H4          24.6870     7.3460    15.3400 h1         1 E77       0.043700
     36 H5          24.3540     6.3140    13.9420 h1         1 E77       0.043700
     37 H6          23.0380     7.1580    14.7670 h1         1 E77       0.043700
     38 H7          25.2140     6.7370    19.0600 ha         1 E77       0.161000
     39 H8          30.0910     3.7130    14.3860 h1         1 E77       0.051700
     40 H9          31.3700     3.1200    13.3390 h1         1 E77       0.051700
     41 H10         22.6940     3.7050    15.8940 h1         1 E77       0.043700
     42 H11         21.6920     5.1620    15.9830 h1         1 E77       0.043700
     43 H12         22.4280     4.6810    14.4500 h1         1 E77       0.043700
     44 H13         28.8840     9.1990    19.1470 h1         1 E77       0.063200
     45 H14         28.1730     9.4400    20.7300 h1         1 E77       0.063200
     46 H15         29.0270     7.1790    21.4370 hc         1 E77       0.052200
     47 H16         30.0000     7.0940    19.9860 hc         1 E77       0.052200
     48 H17         31.0760     7.9650    22.1980 hc         1 E77       0.055200
     49 H18         30.1980     9.4480    21.9290 hc         1 E77       0.055200
     50 H19         32.3370     8.1800    20.1670 h1         1 E77       0.047700
     51 H20         32.5030     9.6160    21.1570 h1         1 E77       0.047700
     52 H21         32.1850     7.5640    18.3470 ha         1 E77       0.130000
     53 H22         32.0360     9.1430    14.3850 ha         1 E77       0.138000
     54 H23         31.2470    11.3070    15.2780 ha         1 E77       0.137000
     55 H24         30.9490    11.6280    17.7020 ha         1 E77       0.147000
     56 H25         32.9430     6.2670    16.6450 hc         1 E77       0.053700
     57 H26         33.4620     6.9960    15.1370 hc         1 E77       0.053700
     58 H27         31.2660     6.7520    14.1480 h1         1 E77       0.088700
     59 H28         30.4180     5.8760    16.8250 hn         1 E77       0.326500
     60 H29         29.8460     5.4520    12.9870 ho         1 E77       0.436000
     61 H30         33.1690     4.1060    15.9410 ho         1 E77       0.402000
     62 O61         28.7940     6.4440    14.1950 o          1 E77      -0.630100
@<TRIPOS>BOND
     1     1    10 1   
     2     1    24 1   
     3     1    31 1   
     4     1    32 1   
     5     2     8 1   
     6     2    25 1   
     7     2    62 2   
     8     3     4 ar  
     9     3     8 ar  
    10     3    33 1   
    11     4     9 ar  
    12     4    29 1   
    13     5     6 ar  
    14     5     9 ar  
    15     5    11 1   
    16     6     8 ar  
    17     6    34 1   
    18     7    26 1   
    19     7    35 1   
    20     7    36 1   
    21     7    37 1   
    22     9    38 1   
    23    10    27 1   
    24    10    39 1   
    25    10    40 1   
    26    11    26 1   
    27    11    28 2   
    28    12    26 1   
    29    12    41 1   
    30    12    42 1   
    31    12    43 1   
    32    13    14 1   
    33    13    29 1   
    34    13    44 1   
    35    13    45 1   
    36    14    15 1   
    37    14    46 1   
    38    14    47 1   
    39    15    16 1   
    40    15    48 1   
    41    15    49 1   
    42    16    30 1   
    43    16    50 1   
    44    16    51 1   
    45    17    18 ar  
    46    17    22 ar  
    47    17    30 1   
    48    18    19 ar  
    49    18    52 1   
    50    19    20 ar  
    51    19    23 1   
    52    20    21 ar  
    53    20    53 1   
    54    21    22 ar  
    55    21    54 1   
    56    22    55 1   
    57    23    24 1   
    58    23    56 1   
    59    23    57 1   
    60    24    25 1   
    61    24    58 1   
    62    25    59 1   
    63    27    60 1   
    64    31    61 1   
@<TRIPOS>SUBSTRUCTURE
     1 E77         1 TEMP              0 ****  ****    0 ROOT
