@<TRIPOS>MOLECULE
E77
   62    64     1     0     0
SMALL
No Charge or Current Charge


@<TRIPOS>ATOM
      1 C5          32.0750     4.7860    14.6860 c3         1 E77       0.117300
      2 C13         29.0610     6.1850    15.4560 c          1 E77       0.619700
      3 C15         28.2550     7.1740    17.6990 ca         1 E77      -0.168000
      4 C17         27.2090     7.4120    18.6220 ca         1 E77       0.137100
      5 C20         25.6460     6.1860    17.1900 ca         1 E77      -0.116600
      6 C21         26.6950     5.9540    16.2750 ca         1 E77      -0.074000
      7 C26         24.1750     6.4360    14.5680 c3         1 E77       0.087300
      8 C14         28.0010     6.4400    16.5110 ca         1 E77      -0.119600
      9 C18         25.9270     6.9030    18.3690 ca         1 E77      -0.088000
     10 C2          31.0350     3.7700    14.1270 c3         1 E77       0.165600
     11 C23         24.2440     5.6520    16.9630 c          1 E77       0.612700
     12 C30         22.5100     4.7550    15.3990 c3         1 E77       0.087300
     13 C35         28.5900     8.7940    20.1700 c3         1 E77       0.163600
     14 C38         29.4200     7.7540    20.9600 c3         1 E77      -0.104400
     15 C41         30.7860     8.2780    21.4820 c3         1 E77      -0.093400
     16 C44         31.8680     8.4090    20.3890 c3         1 E77       0.167600
     17 C48         31.6270     9.5430    18.1880 ca         1 E77       0.148100
     18 C49         32.1780     8.4700    17.4570 ca         1 E77      -0.205000
     19 C51         32.1400     8.4720    16.0520 ca         1 E77      -0.042300
     20 C52         31.5830     9.5680    15.3700 ca         1 E77      -0.138000
     21 C54         31.0630    10.6550    16.0920 ca         1 E77      -0.068000
     22 C56         31.0810    10.6370    17.4980 ca         1 E77      -0.147000
     23 C58         32.6530     7.2540    15.2940 c3         1 E77      -0.051100
     24 C9          31.5320     6.2440    14.9040 c3         1 E77       0.080700
     25 N11         30.3810     6.3110    15.8320 ns         1 E77      -0.483900
     26 N25         23.7710     5.4920    15.6370 n          1 E77      -0.404800
     27 O1          30.3880     4.2700    12.9470 oh         1 E77      -0.671000
     28 O24         23.5600     5.2910    17.9140 o          1 E77      -0.592100
     29 O34         27.3530     8.1790    19.7650 os         1 E77      -0.348100
     30 O47         31.5430     9.5490    19.5670 os         1 E77      -0.362100
     31 O7          32.6090     4.2540    15.9160 oh         1 E77      -0.657000
     32 H1          32.8820     4.8500    13.9430 h1         1 E77       0.044700
     33 H2          29.2460     7.5770    17.8780 ha         1 E77       0.128000
     34 H3          26.5070     5.3630    15.3820 ha         1 E77       0.140000
     35 H4          24.6590     7.3240    14.9950 h1         1 E77       0.043700
     36 H5          24.8660     5.9410    13.8750 h1         1 E77       0.043700
     37 H6          23.2920     6.7670    14.0060 h1         1 E77       0.043700
     38 H7          25.1350     7.0960    19.0880 ha         1 E77       0.143000
     39 H8          30.2890     3.5530    14.9040 h1         1 E77       0.051700
     40 H9          31.5540     2.8290    13.9010 h1         1 E77       0.051700
     41 H10         22.5270     3.8000    15.9380 h1         1 E77       0.043700
     42 H11         21.6590     5.3530    15.7480 h1         1 E77       0.043700
     43 H12         22.3890     4.5500    14.3270 h1         1 E77       0.043700
     44 H13         29.1320     9.1930    19.3080 h1         1 E77       0.063200
     45 H14         28.3780     9.6400    20.8370 h1         1 E77       0.063200
     46 H15         28.8240     7.4280    21.8210 hc         1 E77       0.052200
     47 H16         29.5850     6.8640    20.3410 hc         1 E77       0.052200
     48 H17         31.1570     7.5700    22.2340 hc         1 E77       0.055200
     49 H18         30.6550     9.2370    21.9980 hc         1 E77       0.055200
     50 H19         31.8730     7.4660    19.8340 h1         1 E77       0.047700
     51 H20         32.8560     8.5430    20.8500 h1         1 E77       0.047700
     52 H21         32.6280     7.6180    17.9550 ha         1 E77       0.112000
     53 H22         31.5440     9.5740    14.2830 ha         1 E77       0.120000
     54 H23         30.6310    11.5030    15.5640 ha         1 E77       0.119000
     55 H24         30.6540    11.4660    18.0550 ha         1 E77       0.129000
     56 H25         33.4120     6.7550    15.9060 hc         1 E77       0.053700
     57 H26         33.1790     7.5670    14.3830 hc         1 E77       0.053700
     58 H27         31.1650     6.5960    13.9310 h1         1 E77       0.088700
     59 H28         30.5600     6.5390    16.8010 hn         1 E77       0.326500
     60 H29         29.7100     4.9190    13.2850 ho         1 E77       0.475000
     61 H30         33.4540     4.7190    16.0970 ho         1 E77       0.441000
     62 O61         28.7620     5.9000    14.3020 o          1 E77      -0.630100
@<TRIPOS>BOND
     1     1    10 1   
     2     1    24 1   
     3     1    31 1   
     4     1    32 1   
     5     2     8 1   
     6     2    25 1   
     7     2    62 2   
     8     3     4 ar  
     9     3     8 ar  
    10     3    33 1   
    11     4     9 ar  
    12     4    29 1   
    13     5     6 ar  
    14     5     9 ar  
    15     5    11 1   
    16     6     8 ar  
    17     6    34 1   
    18     7    26 1   
    19     7    35 1   
    20     7    36 1   
    21     7    37 1   
    22     9    38 1   
    23    10    27 1   
    24    10    39 1   
    25    10    40 1   
    26    11    26 1   
    27    11    28 2   
    28    12    26 1   
    29    12    41 1   
    30    12    42 1   
    31    12    43 1   
    32    13    14 1   
    33    13    29 1   
    34    13    44 1   
    35    13    45 1   
    36    14    15 1   
    37    14    46 1   
    38    14    47 1   
    39    15    16 1   
    40    15    48 1   
    41    15    49 1   
    42    16    30 1   
    43    16    50 1   
    44    16    51 1   
    45    17    18 ar  
    46    17    22 ar  
    47    17    30 1   
    48    18    19 ar  
    49    18    52 1   
    50    19    20 ar  
    51    19    23 1   
    52    20    21 ar  
    53    20    53 1   
    54    21    22 ar  
    55    21    54 1   
    56    22    55 1   
    57    23    24 1   
    58    23    56 1   
    59    23    57 1   
    60    24    25 1   
    61    24    58 1   
    62    25    59 1   
    63    27    60 1   
    64    31    61 1   
@<TRIPOS>SUBSTRUCTURE
     1 E77         1 TEMP              0 ****  ****    0 ROOT
