@<TRIPOS>MOLECULE
E78
   49    52     1     0     0
SMALL
abcg2


@<TRIPOS>ATOM
      1 C1          -9.4720   -46.2980    24.9750 ca         1 E78      -0.098000
      2 C2          -8.5170   -47.2770    22.9750 ca         1 E78      -0.124000
      3 C3          -8.3620   -46.8150    24.2950 ca         1 E78       0.032000
      4 C7          -7.0580   -46.8970    24.9550 cc         1 E78      -0.230000
      5 C8          -6.4290   -45.9990    25.7780 cd         1 E78       0.337300
      6 C9          -4.8830   -47.5890    25.7990 cc         1 E78       0.543300
      7 C10        -12.2340   -46.5280    22.5930 c          1 E78       0.577600
      8 C11         -3.2900   -49.4400    25.7630 c          1 E78       0.602100
      9 C12        -12.0120   -45.7540    24.8050 c5         1 E78       0.144300
     10 C13        -14.3040   -43.1090    23.3050 cx         1 E78      -0.123900
     11 C14        -15.7270   -43.5110    23.5990 cx         1 E78      -0.123900
     12 C15        -14.5870   -44.2920    24.1850 cx         1 E78      -0.147700
     13 C19        -15.0770   -46.7490    24.4580 c3         1 E78      -0.103100
     14 C20        -14.3110   -45.6850    23.6690 c3         1 E78       0.151700
     15 N23         -3.6910   -48.1910    26.1490 ns         1 E78      -0.471400
     16 C4         -10.8190   -46.7040    23.0040 ca         1 E78      -0.158600
     17 C5         -10.6840   -46.2480    24.3130 ca         1 E78      -0.080300
     18 C6          -9.7340   -47.2370    22.3010 ca         1 E78       0.004700
     19 C17         -6.9220   -44.6460    26.1780 c3         1 E78      -0.123400
     20 C18         -1.9730   -49.9060    26.3180 c3         1 E78      -0.169100
     21 N21         -5.1970   -46.4060    26.2460 nd         1 E78      -0.716000
     22 N22        -12.8790   -45.9690    23.6550 n          1 E78      -0.418800
     23 O24        -12.7540   -46.8210    21.5140 o          1 E78      -0.559000
     24 O25         -3.9840   -50.1300    25.0260 o          1 E78      -0.575100
     25 S26         -6.0560   -48.3190    24.7550 ss         1 E78       0.057600
     26 H1          -9.3850   -45.9700    26.0020 ha         1 E78       0.123000
     27 H2          -7.6500   -47.6650    22.4540 ha         1 E78       0.121000
     28 H3         -11.9770   -44.6960    25.0810 h1         1 E78       0.061200
     29 H4         -12.3610   -46.3150    25.6770 h1         1 E78       0.061200
     30 H5         -13.9180   -43.3120    22.3140 hc         1 E78       0.074450
     31 H6         -13.9200   -42.2090    23.7650 hc         1 E78       0.074450
     32 H7         -16.3100   -42.8850    24.2610 hc         1 E78       0.074450
     33 H8         -16.2940   -43.9770    22.8020 hc         1 E78       0.074450
     34 H9         -14.4130   -44.1590    25.2470 hc         1 E78       0.075700
     35 H10        -10.5650   -48.5560    20.8190 hc         1 E78       0.054367
     36 H11        -10.1980   -46.9500    20.2200 hc         1 E78       0.054367
     37 H12         -8.8790   -48.0910    20.5330 hc         1 E78       0.054367
     38 H13        -16.1490   -46.5490    24.4050 hc         1 E78       0.042367
     39 H14        -14.8870   -47.7430    24.0490 hc         1 E78       0.042367
     40 H15        -14.7820   -46.7430    25.5090 hc         1 E78       0.042367
     41 H16        -14.6170   -45.7350    22.6230 h1         1 E78       0.081700
     42 H17         -3.0970   -47.6460    26.7610 hn         1 E78       0.340500
     43 H18         -6.0890   -43.9420    26.1960 hc         1 E78       0.052700
     44 H19         -7.6810   -44.2790    25.4900 hc         1 E78       0.052700
     45 H20         -7.3570   -44.6680    27.1810 hc         1 E78       0.052700
     46 H21         -1.3870   -50.3480    25.5130 hc         1 E78       0.070367
     47 H22         -1.4060   -49.1080    26.7940 hc         1 E78       0.070367
     48 H23         -2.1700   -50.6870    27.0560 hc         1 E78       0.070367
     49 C16         -9.8460   -47.7370    20.8890 c3         1 E78      -0.050800
@<TRIPOS>BOND
     1     1     3 ar  
     2     1    17 ar  
     3     1    26 1   
     4     2     3 ar  
     5     2    18 ar  
     6     2    27 1   
     7     3     4 1   
     8     4     5 2   
     9     4    25 1   
    10     5    19 1   
    11     5    21 1   
    12     6    15 1   
    13     6    21 2   
    14     6    25 1   
    15     7    16 1   
    16     7    22 1   
    17     7    23 2   
    18     8    15 1   
    19     8    20 1   
    20     8    24 2   
    21     9    17 1   
    22     9    22 1   
    23     9    28 1   
    24     9    29 1   
    25    10    11 1   
    26    10    12 1   
    27    10    30 1   
    28    10    31 1   
    29    11    12 1   
    30    11    32 1   
    31    11    33 1   
    32    12    14 1   
    33    12    34 1   
    34    13    14 1   
    35    13    38 1   
    36    13    39 1   
    37    13    40 1   
    38    14    22 1   
    39    14    41 1   
    40    15    42 1   
    41    16    17 ar  
    42    16    18 ar  
    43    18    49 1   
    44    19    43 1   
    45    19    44 1   
    46    19    45 1   
    47    20    46 1   
    48    20    47 1   
    49    20    48 1   
    50    35    49 1   
    51    36    49 1   
    52    37    49 1   
@<TRIPOS>SUBSTRUCTURE
     1 E78         1 TEMP              0 ****  ****    0 ROOT
