@<TRIPOS>MOLECULE
E78
   49    52     1     0     0
SMALL
No Charge or Current Charge


@<TRIPOS>ATOM
      1 C1          -9.4840   -46.5480    24.9520 ca         1 E78      -0.098000
      2 C2          -8.5150   -47.3220    22.8480 ca         1 E78      -0.124000
      3 C3          -8.3690   -47.0040    24.2170 ca         1 E78       0.032000
      4 C7          -7.0710   -47.1790    24.8630 cc         1 E78      -0.230000
      5 C8          -6.4410   -46.1620    25.5500 cd         1 E78       0.337300
      6 C9          -4.9150   -47.7650    25.7440 cc         1 E78       0.543300
      7 C10        -12.2480   -46.4530    22.5580 c          1 E78       0.577600
      8 C11         -3.1740   -49.4990    26.0010 c          1 E78       0.602100
      9 C12        -12.0260   -45.9220    24.9100 c5         1 E78       0.144300
     10 C13        -14.2670   -43.0150    23.5510 cx         1 E78      -0.123900
     11 C14        -15.7110   -43.3870    23.8080 cx         1 E78      -0.123900
     12 C15        -14.5990   -44.2800    24.3080 cx         1 E78      -0.147700
     13 C19        -15.1970   -46.7460    24.3640 c3         1 E78      -0.103100
     14 C20        -14.3480   -45.6530    23.6880 c3         1 E78       0.151700
     15 N23         -3.7170   -48.2560    26.1890 ns         1 E78      -0.471400
     16 C4         -10.8430   -46.7050    22.9550 ca         1 E78      -0.158600
     17 C5         -10.7170   -46.4010    24.3000 ca         1 E78      -0.080300
     18 C6          -9.7560   -47.1730    22.1930 ca         1 E78       0.004700
     19 C17         -6.9420   -44.7590    25.7670 c3         1 E78      -0.123400
     20 C18         -1.8090   -49.6950    26.6470 c3         1 E78      -0.169100
     21 N21         -5.2020   -46.5150    26.0660 nd         1 E78      -0.716000
     22 N22        -12.9120   -45.9970    23.7080 n          1 E78      -0.418800
     23 O24        -12.7460   -46.6110    21.4520 o          1 E78      -0.559000
     24 O25         -3.7230   -50.3890    25.3710 o          1 E78      -0.575100
     25 S26         -6.1050   -48.6170    24.7760 ss         1 E78       0.057600
     26 H1          -9.3970   -46.3230    26.0110 ha         1 E78       0.123000
     27 H2          -7.6530   -47.6800    22.2900 ha         1 E78       0.121000
     28 H3         -11.9400   -44.8980    25.2950 h1         1 E78       0.061200
     29 H4         -12.3670   -46.5880    25.7130 h1         1 E78       0.061200
     30 H5         -13.8910   -43.1130    22.5350 hc         1 E78       0.074450
     31 H6         -13.8480   -42.1840    24.1140 hc         1 E78       0.074450
     32 H7         -16.2620   -42.8040    24.5420 hc         1 E78       0.074450
     33 H8         -16.3030   -43.7280    22.9620 hc         1 E78       0.074450
     34 H9         -14.4120   -44.2650    25.3800 hc         1 E78       0.075700
     35 H10        -10.6350   -48.3080    20.5640 hc         1 E78       0.054367
     36 H11        -10.2160   -46.6380    20.1400 hc         1 E78       0.054367
     37 H12         -8.9470   -47.8600    20.2870 hc         1 E78       0.054367
     38 H13        -16.2630   -46.5040    24.2930 hc         1 E78       0.042367
     39 H14        -15.0330   -47.7150    23.8770 hc         1 E78       0.042367
     40 H15        -14.9360   -46.8450    25.4250 hc         1 E78       0.042367
     41 H16        -14.6740   -45.6000    22.6400 h1         1 E78       0.081700
     42 H17         -3.1570   -47.6160    26.7310 hn         1 E78       0.340500
     43 H18         -6.1140   -44.0660    25.9550 hc         1 E78       0.052700
     44 H19         -7.4850   -44.3910    24.8890 hc         1 E78       0.052700
     45 H20         -7.6170   -44.7140    26.6290 hc         1 E78       0.052700
     46 H21         -1.4030   -50.6980    26.4780 hc         1 E78       0.070367
     47 H22         -1.1270   -48.9170    26.2860 hc         1 E78       0.070367
     48 H23         -1.8830   -49.4640    27.7160 hc         1 E78       0.070367
     49 C16         -9.8950   -47.5140    20.7160 c3         1 E78      -0.050800
@<TRIPOS>BOND
     1     1     3 ar  
     2     1    17 ar  
     3     1    26 1   
     4     2     3 ar  
     5     2    18 ar  
     6     2    27 1   
     7     3     4 1   
     8     4     5 2   
     9     4    25 1   
    10     5    19 1   
    11     5    21 1   
    12     6    15 1   
    13     6    21 2   
    14     6    25 1   
    15     7    16 1   
    16     7    22 1   
    17     7    23 2   
    18     8    15 1   
    19     8    20 1   
    20     8    24 2   
    21     9    17 1   
    22     9    22 1   
    23     9    28 1   
    24     9    29 1   
    25    10    11 1   
    26    10    12 1   
    27    10    30 1   
    28    10    31 1   
    29    11    12 1   
    30    11    32 1   
    31    11    33 1   
    32    12    14 1   
    33    12    34 1   
    34    13    14 1   
    35    13    38 1   
    36    13    39 1   
    37    13    40 1   
    38    14    22 1   
    39    14    41 1   
    40    15    42 1   
    41    16    17 ar  
    42    16    18 ar  
    43    18    49 1   
    44    19    43 1   
    45    19    44 1   
    46    19    45 1   
    47    20    46 1   
    48    20    47 1   
    49    20    48 1   
    50    35    49 1   
    51    36    49 1   
    52    37    49 1   
@<TRIPOS>SUBSTRUCTURE
     1 E78         1 TEMP              0 ****  ****    0 ROOT
