@<TRIPOS>MOLECULE
E79
   21    20     1     0     0
SMALL
abcg2


@<TRIPOS>ATOM
      1 C1           0.3880     2.3820     0.9500 c3         1 E79      -0.080100
      2 C2           0.8100     0.9730     0.5500 c3         1 E79       0.202500
      3 C4          -1.5040     0.1340     0.4120 c3         1 E79       0.245500
      4 C6          -2.4670    -0.5730    -0.5780 c          1 E79       0.699000
      5 C9           2.0890     1.0380    -0.2800 c3         1 E79      -0.200400
      6 C10          2.7540    -0.2940    -0.6730 c          1 E79       0.717000
      7 N3          -0.2320     0.3150    -0.2300 n7         1 E79      -0.866400
      8 O5          -1.4620    -0.6110     1.6110 oh         1 E79      -0.746000
      9 O7          -2.8220    -1.7250    -0.2310 o          1 E79      -0.736000
     10 O8          -2.7930     0.0370    -1.6050 o          1 E79      -0.736000
     11 O11          3.8520    -0.1990    -1.2570 o          1 E79      -0.754000
     12 O12          2.1640    -1.3600    -0.3910 o          1 E79      -0.754000
     13 H1           0.0930     2.9610     0.0710 hc         1 E79       0.007033
     14 H2          -0.4480     2.3910     1.6500 hc         1 E79       0.007033
     15 H3           1.2160     2.9040     1.4320 hc         1 E79       0.007033
     16 H4           1.0370     0.4190     1.4740 h1         1 E79       0.015700
     17 H5          -1.9130     1.1250     0.6410 h2         1 E79       0.024700
     18 H6           1.8840     1.6030    -1.1980 hc         1 E79       0.012200
     19 H7           2.8320     1.6300     0.2650 hc         1 E79       0.012200
     20 H8           0.1460    -0.5870    -0.5020 hn         1 E79       0.458000
     21 H10         -1.9030    -1.4400     1.3510 ho         1 E79       0.465000
@<TRIPOS>BOND
     1     1     2 1   
     2     1    13 1   
     3     1    14 1   
     4     1    15 1   
     5     2     5 1   
     6     2     7 1   
     7     2    16 1   
     8     3     4 1   
     9     3     7 1   
    10     3     8 1   
    11     3    17 1   
    12     4     9 1   
    13     4    10 1   
    14     5     6 1   
    15     5    18 1   
    16     5    19 1   
    17     6    11 1   
    18     6    12 1   
    19     7    20 1   
    20     8    21 1   
@<TRIPOS>SUBSTRUCTURE
     1 E79         1 TEMP              0 ****  ****    0 ROOT
