@<TRIPOS>MOLECULE
E79
   21    20     1     0     0
SMALL
No Charge or Current Charge


@<TRIPOS>ATOM
      1 C1           0.4210     2.6000     0.6850 c3         1 E79      -0.080100
      2 C2           0.8390     1.1370     0.3920 c3         1 E79       0.202500
      3 C4          -1.3810    -0.0350     0.6180 c3         1 E79       0.245500
      4 C6          -2.7130    -0.5010    -0.1670 c          1 E79       0.699000
      5 C9           2.0760     1.0650    -0.5310 c3         1 E79      -0.200400
      6 C10          2.6250    -0.3690    -0.5380 c          1 E79       0.717000
      7 N3          -0.2710     0.4040    -0.2480 n7         1 E79      -0.866400
      8 O5          -0.8250    -1.1110     1.3760 oh         1 E79      -0.746000
      9 O7          -2.9110    -1.7070    -0.2890 o          1 E79      -0.736000
     10 O8          -3.5080     0.3460    -0.5610 o          1 E79      -0.736000
     11 O11          3.4780    -0.6670     0.2850 o          1 E79      -0.754000
     12 O12          2.1580    -1.1620    -1.3430 o          1 E79      -0.754000
     13 H1           0.1380     3.1220    -0.2370 hc         1 E79       0.007033
     14 H2          -0.4260     2.6400     1.3790 hc         1 E79       0.007033
     15 H3           1.2500     3.1500     1.1470 hc         1 E79       0.007033
     16 H4           1.1130     0.6680     1.3470 h1         1 E79       0.015700
     17 H5          -1.6660     0.7690     1.3080 h2         1 E79       0.024700
     18 H6           1.7400     1.3640    -1.5320 hc         1 E79       0.012200
     19 H7           2.8210     1.7470    -0.1010 hc         1 E79       0.012200
     20 H8           0.1380    -0.4530    -0.6400 hn         1 E79       0.458000
     21 H10         -1.3760    -1.8860     1.1120 ho         1 E79       0.465000
@<TRIPOS>BOND
     1     1     2 1   
     2     1    13 1   
     3     1    14 1   
     4     1    15 1   
     5     2     5 1   
     6     2     7 1   
     7     2    16 1   
     8     3     4 1   
     9     3     7 1   
    10     3     8 1   
    11     3    17 1   
    12     4     9 1   
    13     4    10 1   
    14     5     6 1   
    15     5    18 1   
    16     5    19 1   
    17     6    11 1   
    18     6    12 1   
    19     7    20 1   
    20     8    21 1   
@<TRIPOS>SUBSTRUCTURE
     1 E79         1 TEMP              0 ****  ****    0 ROOT
