@<TRIPOS>MOLECULE
E7A
   66    67     1     0     0
SMALL
abcg2


@<TRIPOS>ATOM
      1 C2          30.9880     4.1680    13.5780 c3         1 E7A       0.165600
      2 C5          31.8740     4.9730    14.5150 c3         1 E7A       0.155300
      3 O7          32.1510     4.1380    15.6210 oh         1 E7A      -0.665000
      4 C15         28.1350     6.5430    17.8490 ca         1 E7A      -0.169000
      5 C18         25.8870     6.0170    18.5240 ca         1 E7A      -0.089000
      6 C13         28.7970     6.4480    15.4310 c          1 E7A       0.614700
      7 C14         27.7870     6.2870    16.5250 ca         1 E7A      -0.121600
      8 C17         27.1820     6.4150    18.8560 ca         1 E7A       0.135100
      9 C20         25.5390     5.8000    17.2010 ca         1 E7A      -0.116600
     10 C21         26.4860     5.9410    16.1920 ca         1 E7A      -0.076000
     11 C23         24.1540     5.3110    16.8990 c          1 E7A       0.614700
     12 C35         28.6320     7.2290    20.5890 c3         1 E7A       0.162600
     13 C38         28.6270     8.7410    20.4230 c3         1 E7A      -0.112400
     14 C41         29.9520     9.3490    20.8910 c3         1 E7A      -0.074400
     15 C44         31.0810     9.2980    19.8610 c3         1 E7A      -0.075400
     16 C47         30.9100    10.3000    18.7220 c3         1 E7A      -0.076400
     17 C50         32.1500    10.4580    17.8430 c3         1 E7A      -0.071400
     18 C53         32.6390     9.1790    17.1650 c3         1 E7A      -0.072400
     19 C56         31.6250     8.4930    16.2470 c3         1 E7A      -0.054700
     20 C58         32.1990     7.1630    15.7550 c3         1 E7A      -0.093400
     21 C9          31.2240     6.2920    14.9560 c3         1 E7A       0.080700
     22 N11         30.0350     6.0320    15.7410 ns         1 E7A      -0.495900
     23 N25         23.4600     5.9520    15.9410 n          1 E7A      -0.404800
     24 O1          30.7800     4.9180    12.4050 oh         1 E7A      -0.663000
     25 O24         23.7180     4.3390    17.5040 o          1 E7A      -0.593100
     26 O34         27.4180     6.6230    20.1620 os         1 E7A      -0.344100
     27 O65         28.4790     6.9330    14.3540 o          1 E7A      -0.602100
     28 H1          30.0450     3.9270    14.0840 h1         1 E7A       0.036200
     29 H2          31.4890     3.2150    13.3610 h1         1 E7A       0.036200
     30 H3          32.7980     5.2290    13.9780 h1         1 E7A       0.048700
     31 H4          32.9520     4.4490    16.0520 ho         1 E7A       0.446000
     32 H5          29.1430     6.8600    18.0800 ha         1 E7A       0.121000
     33 H6          25.1520     5.9020    19.3110 ha         1 E7A       0.143000
     34 H7          26.2240     5.7610    15.1580 ha         1 E7A       0.139000
     35 H8          24.5840     7.7330    15.9910 h1         1 E7A       0.043533
     36 H9          24.0630     7.2320    14.3780 h1         1 E7A       0.043533
     37 H10         22.9010     7.9120    15.5220 h1         1 E7A       0.043533
     38 H11         22.1200     4.3590    15.6800 h1         1 E7A       0.043533
     39 H12         21.3540     5.9130    16.0400 h1         1 E7A       0.043533
     40 H13         22.0580     5.6180    14.4450 h1         1 E7A       0.043533
     41 H14         28.7100     6.9820    21.6480 h1         1 E7A       0.053700
     42 H15         29.4970     6.7700    20.0980 h1         1 E7A       0.053700
     43 H16         28.4280     9.0230    19.3840 hc         1 E7A       0.055200
     44 H17         27.8030     9.1470    21.0130 hc         1 E7A       0.055200
     45 H18         30.2690     8.8410    21.8080 hc         1 E7A       0.042200
     46 H19         29.7870    10.3920    21.1740 hc         1 E7A       0.042200
     47 H20         31.1800     8.2830    19.4620 hc         1 E7A       0.037200
     48 H21         32.0280     9.5060    20.3690 hc         1 E7A       0.037200
     49 H22         30.6720    11.2790    19.1520 hc         1 E7A       0.040200
     50 H23         30.0460    10.0320    18.1060 hc         1 E7A       0.040200
     51 H24         32.9650    10.8520    18.4580 hc         1 E7A       0.039700
     52 H25         31.9550    11.2260    17.0900 hc         1 E7A       0.039700
     53 H26         32.9610     8.4670    17.9320 hc         1 E7A       0.035200
     54 H27         33.5390     9.4140    16.5840 hc         1 E7A       0.035200
     55 H28         30.7330     8.2670    16.8440 hc         1 E7A       0.046700
     56 H29         32.5590     6.6030    16.6260 hc         1 E7A       0.039700
     57 H30         33.0780     7.3540    15.1290 hc         1 E7A       0.039700
     58 H34         30.9110     6.8210    14.0570 h1         1 E7A       0.106700
     59 H35         30.1710     5.5510    16.6170 hn         1 E7A       0.320500
     60 H36         30.0290     4.5450    11.9360 ho         1 E7A       0.454000
     61 C61         31.2100     9.3970    15.0910 c3         1 E7A      -0.093100
     62 H31         30.7630    10.3260    15.4460 hc         1 E7A       0.039367
     63 C26         23.7780     7.2710    15.4310 c3         1 E7A       0.085800
     64 C30         22.1790     5.4290    15.5120 c3         1 E7A       0.085800
     65 H32         32.0760     9.6610    14.4780 hc         1 E7A       0.039367
     66 H33         30.4740     8.9220    14.4420 hc         1 E7A       0.039367
@<TRIPOS>BOND
     1     1     2 1   
     2     1    24 1   
     3     1    28 1   
     4     1    29 1   
     5     2     3 1   
     6     2    21 1   
     7     2    30 1   
     8     3    31 1   
     9     4     7 ar  
    10     4     8 ar  
    11     4    32 1   
    12     5     8 ar  
    13     5     9 ar  
    14     5    33 1   
    15     6     7 1   
    16     6    22 1   
    17     6    27 2   
    18     7    10 ar  
    19     8    26 1   
    20     9    10 ar  
    21     9    11 1   
    22    10    34 1   
    23    11    23 1   
    24    11    25 2   
    25    12    13 1   
    26    12    26 1   
    27    12    41 1   
    28    12    42 1   
    29    13    14 1   
    30    13    43 1   
    31    13    44 1   
    32    14    15 1   
    33    14    45 1   
    34    14    46 1   
    35    15    16 1   
    36    15    47 1   
    37    15    48 1   
    38    16    17 1   
    39    16    49 1   
    40    16    50 1   
    41    17    18 1   
    42    17    51 1   
    43    17    52 1   
    44    18    19 1   
    45    18    53 1   
    46    18    54 1   
    47    19    20 1   
    48    19    55 1   
    49    19    61 1   
    50    20    21 1   
    51    20    56 1   
    52    20    57 1   
    53    21    22 1   
    54    21    58 1   
    55    22    59 1   
    56    23    63 1   
    57    23    64 1   
    58    24    60 1   
    59    35    63 1   
    60    36    63 1   
    61    37    63 1   
    62    38    64 1   
    63    39    64 1   
    64    40    64 1   
    65    61    62 1   
    66    61    65 1   
    67    61    66 1   
@<TRIPOS>SUBSTRUCTURE
     1 E7A         1 TEMP              0 ****  ****    0 ROOT
