@<TRIPOS>MOLECULE
E7A
   66    67     1     0     0
SMALL
No Charge or Current Charge


@<TRIPOS>ATOM
      1 C2          31.1190     4.1030    13.4340 c3         1 E7A       0.165600
      2 C5          31.9660     4.9200    14.4540 c3         1 E7A       0.155300
      3 O7          32.2690     4.0850    15.5920 oh         1 E7A      -0.665000
      4 C15         28.2020     6.2800    17.9100 ca         1 E7A      -0.169000
      5 C18         25.9130     5.9810    18.6720 ca         1 E7A      -0.089000
      6 C13         28.7770     6.1750    15.4220 c          1 E7A       0.614700
      7 C14         27.7870     6.1190    16.5660 ca         1 E7A      -0.121600
      8 C17         27.2650     6.2140    18.9610 ca         1 E7A       0.135100
      9 C20         25.4640     5.8630    17.3390 ca         1 E7A      -0.116600
     10 C21         26.4160     5.9220    16.2950 ca         1 E7A      -0.076000
     11 C23         23.9910     5.6190    17.0730 c          1 E7A       0.614700
     12 C35         28.8340     7.0310    20.7070 c3         1 E7A       0.162600
     13 C38         28.6460     8.5530    20.4990 c3         1 E7A      -0.112400
     14 C41         29.8600     9.3980    20.9580 c3         1 E7A      -0.074400
     15 C44         31.0530     9.4330    19.9700 c3         1 E7A      -0.075400
     16 C47         30.8150    10.3470    18.7400 c3         1 E7A      -0.076400
     17 C50         32.0570    10.5450    17.8330 c3         1 E7A      -0.071400
     18 C53         32.5980     9.2720    17.1280 c3         1 E7A      -0.072400
     19 C56         31.5960     8.5190    16.2050 c3         1 E7A      -0.054700
     20 C58         32.2300     7.1950    15.6760 c3         1 E7A      -0.093400
     21 C9          31.2630     6.2370    14.9220 c3         1 E7A       0.080700
     22 N11         30.0920     5.9690    15.7710 ns         1 E7A      -0.495900
     23 N25         23.4220     6.0750    15.8580 n          1 E7A      -0.404800
     24 O1          30.9330     4.8350    12.2090 oh         1 E7A      -0.663000
     25 O24         23.3200     4.9660    17.8650 o          1 E7A      -0.593100
     26 O34         27.6280     6.3570    20.2870 os         1 E7A      -0.344100
     27 O65         28.4400     6.4280    14.2730 o          1 E7A      -0.602100
     28 H1          30.1470     3.8610    13.8850 h1         1 E7A       0.036200
     29 H2          31.6340     3.1550    13.2270 h1         1 E7A       0.036200
     30 H3          32.8990     5.1970    13.9450 h1         1 E7A       0.048700
     31 H4          32.9580     4.5500    16.1160 ho         1 E7A       0.446000
     32 H5          29.2470     6.4620    18.1310 ha         1 E7A       0.121000
     33 H6          25.2030     5.9210    19.4930 ha         1 E7A       0.143000
     34 H7          26.0990     5.7740    15.2650 ha         1 E7A       0.139000
     35 H8          24.5200     7.9050    15.9180 h1         1 E7A       0.043533
     36 H9          24.4670     7.0980    14.3200 h1         1 E7A       0.043533
     37 H10         23.0340     7.9550    14.9450 h1         1 E7A       0.043533
     38 H11         21.9720     4.5510    15.5830 h1         1 E7A       0.043533
     39 H12         21.3220     6.1240    16.1380 h1         1 E7A       0.043533
     40 H13         21.8480     5.9140    14.4410 h1         1 E7A       0.043533
     41 H14         29.0000     6.8460    21.7760 h1         1 E7A       0.053700
     42 H15         29.7190     6.6610    20.1770 h1         1 E7A       0.053700
     43 H16         28.4190     8.7660    19.4480 hc         1 E7A       0.055200
     44 H17         27.7680     8.8680    21.0760 hc         1 E7A       0.055200
     45 H18         30.2110     9.0170    21.9260 hc         1 E7A       0.042200
     46 H19         29.5270    10.4270    21.1440 hc         1 E7A       0.042200
     47 H20         31.2910     8.4150    19.6410 hc         1 E7A       0.037200
     48 H21         31.9340     9.8030    20.5090 hc         1 E7A       0.037200
     49 H22         30.5030    11.3360    19.0980 hc         1 E7A       0.040200
     50 H23         29.9780     9.9650    18.1450 hc         1 E7A       0.040200
     51 H24         32.8660    10.9710    18.4410 hc         1 E7A       0.039700
     52 H25         31.8260    11.3070    17.0790 hc         1 E7A       0.039700
     53 H26         32.9630     8.5810    17.8980 hc         1 E7A       0.035200
     54 H27         33.4770     9.5540    16.5360 hc         1 E7A       0.035200
     55 H28         30.7360     8.2470    16.8270 hc         1 E7A       0.046700
     56 H29         32.6580     6.6560    16.5300 hc         1 E7A       0.039700
     57 H30         33.0710     7.4430    15.0160 hc         1 E7A       0.039700
     58 H34         30.9280     6.7570    14.0150 h1         1 E7A       0.106700
     59 H35         30.2600     5.6890    16.7280 hn         1 E7A       0.320500
     60 H36         30.3390     4.2950    11.6410 ho         1 E7A       0.454000
     61 C61         31.0690     9.4110    15.0520 c3         1 E7A      -0.093100
     62 H31         30.5630    10.3020    15.4390 hc         1 E7A       0.039367
     63 C26         23.8930     7.3310    15.2250 c3         1 E7A       0.085800
     64 C30         22.0590     5.6410    15.4830 c3         1 E7A       0.085800
     65 H32         31.8910     9.7360    14.4030 hc         1 E7A       0.039367
     66 H33         30.3370     8.8760    14.4370 hc         1 E7A       0.039367
@<TRIPOS>BOND
     1     1     2 1   
     2     1    24 1   
     3     1    28 1   
     4     1    29 1   
     5     2     3 1   
     6     2    21 1   
     7     2    30 1   
     8     3    31 1   
     9     4     7 ar  
    10     4     8 ar  
    11     4    32 1   
    12     5     8 ar  
    13     5     9 ar  
    14     5    33 1   
    15     6     7 1   
    16     6    22 1   
    17     6    27 2   
    18     7    10 ar  
    19     8    26 1   
    20     9    10 ar  
    21     9    11 1   
    22    10    34 1   
    23    11    23 1   
    24    11    25 2   
    25    12    13 1   
    26    12    26 1   
    27    12    41 1   
    28    12    42 1   
    29    13    14 1   
    30    13    43 1   
    31    13    44 1   
    32    14    15 1   
    33    14    45 1   
    34    14    46 1   
    35    15    16 1   
    36    15    47 1   
    37    15    48 1   
    38    16    17 1   
    39    16    49 1   
    40    16    50 1   
    41    17    18 1   
    42    17    51 1   
    43    17    52 1   
    44    18    19 1   
    45    18    53 1   
    46    18    54 1   
    47    19    20 1   
    48    19    55 1   
    49    19    61 1   
    50    20    21 1   
    51    20    56 1   
    52    20    57 1   
    53    21    22 1   
    54    21    58 1   
    55    22    59 1   
    56    23    63 1   
    57    23    64 1   
    58    24    60 1   
    59    35    63 1   
    60    36    63 1   
    61    37    63 1   
    62    38    64 1   
    63    39    64 1   
    64    40    64 1   
    65    61    62 1   
    66    61    65 1   
    67    61    66 1   
@<TRIPOS>SUBSTRUCTURE
     1 E7A         1 TEMP              0 ****  ****    0 ROOT
