@<TRIPOS>MOLECULE
E7B
  121   122     1     0     0
SMALL
No Charge or Current Charge


@<TRIPOS>ATOM
      1 C1           5.6110    -5.3290    -1.9420 c3         1 E7B      -0.200100
      2 C2           6.6490    -4.3100    -2.4110 c          1 E7B       0.569100
      3 O3           6.4580    -3.6220    -3.4060 o          1 E7B      -0.510100
      4 C3           7.9350    -4.1910    -1.5630 c3         1 E7B      -0.162700
      5 C30          9.1820    -4.5720    -2.4010 c3         1 E7B      -0.083100
      6 C4           8.0340    -2.7810    -0.9180 c3         1 E7B      -0.063400
      7 C5           9.1630    -2.6280     0.1340 c3         1 E7B      -0.068400
      8 C6           9.1470    -1.2650     0.8850 c6         1 E7B       0.179300
      9 O2           9.2640    -0.2350    -0.1250 os         1 E7B      -0.485000
     10 C7          10.2800    -1.0980     1.9440 c6         1 E7B      -0.091700
     11 C25         10.2200    -2.1580     3.0800 c3         1 E7B      -0.084100
     12 C8          10.2150     0.3350     2.5350 c6         1 E7B      -0.069400
     13 C9          10.2180     1.4000     1.4100 c6         1 E7B      -0.085400
     14 C10          9.1170     1.1210     0.3490 c6         1 E7B       0.402000
     15 O1           7.8070     1.2900     0.9370 os         1 E7B      -0.485000
     16 C11          9.2740     2.1120    -0.8400 c6         1 E7B      -0.085400
     17 C12          8.0930     2.0040    -1.8380 c6         1 E7B      -0.069400
     18 C13          6.7250     2.1170    -1.1100 c6         1 E7B      -0.088700
     19 C28          6.4450     3.5740    -0.6300 c3         1 E7B      -0.081100
     20 C14          6.6880     1.0610     0.0450 c6         1 E7B       0.180300
     21 C15          5.3800     1.0250     0.9190 c3         1 E7B      -0.052700
     22 C26          5.4810    -0.0450     2.0440 c3         1 E7B      -0.084100
     23 C16          4.0890     0.8230     0.0640 c3         1 E7B      -0.076400
     24 C17          2.7510     0.8600     0.8540 c3         1 E7B      -0.106400
     25 C18          1.4810     0.7730    -0.0370 c3         1 E7B       0.172300
     26 O4           1.4570     1.9010    -0.9170 oh         1 E7B      -0.652000
     27 C19          0.1470     0.7580     0.7570 c3         1 E7B      -0.200700
     28 C27          0.0220    -0.4260     1.7540 c3         1 E7B      -0.081100
     29 C20         -1.0450     0.7550    -0.2260 c          1 E7B       0.585100
     30 O13         -1.2940    -0.2190    -0.9270 o          1 E7B      -0.495100
     31 C21         -1.8920     2.0280    -0.3280 c3         1 E7B      -0.214400
     32 C22         -3.2240     1.8640     0.4320 c3         1 E7B       0.197300
     33 O5          -2.9290     1.7010     1.8200 oh         1 E7B      -0.681000
     34 C23         -4.2000     3.0850     0.2800 c3         1 E7B       0.123300
     35 O6          -4.7760     3.3490     1.5930 os         1 E7B      -0.459000
     36 C29         -5.3490     4.6590     1.7810 c3         1 E7B       0.151900
     37 C24         -5.3410     2.8860    -0.7890 c3         1 E7B       0.157300
     38 C31         -4.8630     2.7890    -2.2730 c3         1 E7B      -0.065700
     39 C33         -6.0420     2.5150    -3.2420 c3         1 E7B      -0.089600
     40 C32         -4.0970     4.0560    -2.7360 c3         1 E7B      -0.089600
     41 O7          -6.0310     1.6500    -0.4880 os         1 E7B      -0.422100
     42 C34         -7.1890     1.6760     0.2510 c          1 E7B       0.617100
     43 O12         -7.7380     2.6900     0.6640 o          1 E7B      -0.542000
     44 C35         -7.6730     0.2710     0.5890 c3         1 E7B      -0.162400
     45 C36         -8.9480    -0.0810    -0.1940 c3         1 E7B       0.252500
     46 O11         -8.6600    -0.1500    -1.5810 oh         1 E7B      -0.761000
     47 C37         -9.5770    -1.3970     0.2890 ce         1 E7B      -0.274400
     48 C40         -8.8510    -2.6590    -0.1410 c          1 E7B       0.714200
     49 O14         -8.7810    -3.5950     0.6390 o          1 E7B      -0.724500
     50 O9          -8.1990    -2.6350    -1.1780 o          1 E7B      -0.724500
     51 C38        -10.6690    -1.4020     1.1530 cf         1 E7B      -0.124400
     52 C41        -11.1970    -0.0900     1.7530 c3         1 E7B      -0.044900
     53 C39        -11.4520    -2.6580     1.5290 c          1 E7B       0.757200
     54 O10        -11.6000    -3.5390     0.6910 o          1 E7B      -0.749000
     55 O8         -12.0700    -2.6790     2.5870 o          1 E7B      -0.749000
     56 H1           5.3500    -5.1170    -0.8990 hc         1 E7B       0.058700
     57 H1A          4.7230    -5.3570    -2.5850 hc         1 E7B       0.058700
     58 H1B          6.0880    -6.3130    -1.8670 hc         1 E7B       0.058700
     59 H3           7.8540    -4.9210    -0.7480 hc         1 E7B       0.057700
     60 H30         10.0800    -4.6280    -1.7740 hc         1 E7B       0.036367
     61 H30A         9.0440    -5.5550    -2.8690 hc         1 E7B       0.036367
     62 H30B         9.3610    -3.8370    -3.1950 hc         1 E7B       0.036367
     63 H4           8.1660    -2.0300    -1.7080 hc         1 E7B       0.060700
     64 H4A          7.0770    -2.5510    -0.4300 hc         1 E7B       0.060700
     65 H5           9.0590    -3.4460     0.8560 hc         1 E7B       0.041200
     66 H5A         10.1360    -2.7620    -0.3510 hc         1 E7B       0.041200
     67 H6           8.1710    -1.1710     1.3840 h1         1 E7B       0.048700
     68 H7          11.2510    -1.2290     1.4450 hc         1 E7B       0.050700
     69 H25         10.4090    -3.1690     2.7020 hc         1 E7B       0.033700
     70 H25A        10.9770    -1.9570     3.8470 hc         1 E7B       0.033700
     71 H25B         9.2400    -2.1600     3.5720 hc         1 E7B       0.033700
     72 H8           9.3050     0.4480     3.1420 hc         1 E7B       0.046200
     73 H8A         11.0640     0.5080     3.2110 hc         1 E7B       0.046200
     74 H9          10.0770     2.3980     1.8440 hc         1 E7B       0.051700
     75 H9A         11.2030     1.4100     0.9230 hc         1 E7B       0.051700
     76 H11          9.3450     3.1400    -0.4590 hc         1 E7B       0.050200
     77 H11A        10.2180     1.9170    -1.3660 hc         1 E7B       0.050200
     78 H12          8.1810     2.7760    -2.6150 hc         1 E7B       0.046200
     79 H12A         8.1470     1.0380    -2.3590 hc         1 E7B       0.046200
     80 H13          5.9480     1.8770    -1.8470 hc         1 E7B       0.062700
     81 H28          6.5660     4.2900    -1.4530 hc         1 E7B       0.032367
     82 H28A         5.4190     3.6850    -0.2590 hc         1 E7B       0.032367
     83 H28B         7.1220     3.8780     0.1760 hc         1 E7B       0.032367
     84 H14          6.7940     0.0620    -0.4030 h1         1 E7B       0.048700
     85 H15          5.2840     1.9940     1.4230 hc         1 E7B       0.052700
     86 H26          5.4990    -1.0560     1.6190 hc         1 E7B       0.034367
     87 H26A         6.3900     0.0880     2.6430 hc         1 E7B       0.034367
     88 H26B         4.6390     0.0240     2.7410 hc         1 E7B       0.034367
     89 H16          4.0470     1.6060    -0.7000 hc         1 E7B       0.050700
     90 H16A         4.1590    -0.1310    -0.4740 hc         1 E7B       0.050700
     91 H17          2.7400     0.0130     1.5460 hc         1 E7B       0.042700
     92 H17A         2.7100     1.7710     1.4640 hc         1 E7B       0.042700
     93 H18          1.5390    -0.1570    -0.6230 h1         1 E7B       0.094700
     94 HO4          1.7440     2.6780    -0.3920 ho         1 E7B       0.428000
     95 H19          0.1030     1.6850     1.3420 hc         1 E7B       0.047700
     96 H27          0.1880    -1.3850     1.2480 hc         1 E7B       0.043700
     97 H27A         0.7430    -0.3360     2.5750 hc         1 E7B       0.043700
     98 H27B        -0.9800    -0.4470     2.2010 hc         1 E7B       0.043700
     99 H21         -1.3530     2.8820     0.0980 hc         1 E7B       0.059200
    100 H21A        -2.1000     2.2120    -1.3860 hc         1 E7B       0.059200
    101 H22         -3.7260     0.9610     0.0550 h1         1 E7B       0.088700
    102 HO5         -3.6110     2.2830     2.2450 ho         1 E7B       0.515000
    103 H23         -3.6000     3.9560    -0.0100 h1         1 E7B       0.022700
    104 H29         -5.7210     4.7640     2.8070 h1         1 E7B       0.028033
    105 H29A        -4.5970     5.4400     1.6100 h1         1 E7B       0.028033
    106 H29B        -6.1900     4.8350     1.1000 h1         1 E7B       0.028033
    107 H24         -6.0250     3.7420    -0.7480 h1         1 E7B       0.058700
    108 H31         -4.1810     1.9350    -2.3580 hc         1 E7B       0.074700
    109 H33         -6.7950     3.3090    -3.1760 hc         1 E7B       0.033533
    110 H33A        -5.6880     2.4640    -4.2790 hc         1 E7B       0.033533
    111 H33B        -6.5300     1.5590    -3.0170 hc         1 E7B       0.033533
    112 H32         -3.1790     4.2100    -2.1600 hc         1 E7B       0.033533
    113 H32A        -3.8070     3.9680    -3.7900 hc         1 E7B       0.033533
    114 H32B        -4.7240     4.9500    -2.6290 hc         1 E7B       0.033533
    115 H2          -6.8940    -0.4610     0.3520 hc         1 E7B       0.078700
    116 H2'A        -7.9060     0.2370     1.6590 hc         1 E7B       0.078700
    117 H10         -9.6560     0.7430    -0.0440 h1         1 E7B       0.027700
    118 HO11        -8.3940    -1.1100    -1.6850 ho         1 E7B       0.516000
    119 H41        -11.9790    -0.2280     2.5060 hc         1 E7B       0.009367
    120 H41A       -10.3930     0.4750     2.2390 hc         1 E7B       0.009367
    121 H41B       -11.6320     0.5490     0.9750 hc         1 E7B       0.009367
@<TRIPOS>BOND
     1     1     2 1   
     2     1    56 1   
     3     1    57 1   
     4     1    58 1   
     5     2     3 2   
     6     2     4 1   
     7     4     5 1   
     8     4     6 1   
     9     4    59 1   
    10     5    60 1   
    11     5    61 1   
    12     5    62 1   
    13     6     7 1   
    14     6    63 1   
    15     6    64 1   
    16     7     8 1   
    17     7    65 1   
    18     7    66 1   
    19     8     9 1   
    20     8    10 1   
    21     8    67 1   
    22     9    14 1   
    23    10    11 1   
    24    10    12 1   
    25    10    68 1   
    26    11    69 1   
    27    11    70 1   
    28    11    71 1   
    29    12    13 1   
    30    12    72 1   
    31    12    73 1   
    32    13    14 1   
    33    13    74 1   
    34    13    75 1   
    35    14    15 1   
    36    14    16 1   
    37    15    20 1   
    38    16    17 1   
    39    16    76 1   
    40    16    77 1   
    41    17    18 1   
    42    17    78 1   
    43    17    79 1   
    44    18    19 1   
    45    18    20 1   
    46    18    80 1   
    47    19    81 1   
    48    19    82 1   
    49    19    83 1   
    50    20    21 1   
    51    20    84 1   
    52    21    22 1   
    53    21    23 1   
    54    21    85 1   
    55    22    86 1   
    56    22    87 1   
    57    22    88 1   
    58    23    24 1   
    59    23    89 1   
    60    23    90 1   
    61    24    25 1   
    62    24    91 1   
    63    24    92 1   
    64    25    26 1   
    65    25    27 1   
    66    25    93 1   
    67    26    94 1   
    68    27    28 1   
    69    27    29 1   
    70    27    95 1   
    71    28    96 1   
    72    28    97 1   
    73    28    98 1   
    74    29    30 2   
    75    29    31 1   
    76    31    32 1   
    77    31    99 1   
    78    31   100 1   
    79    32    33 1   
    80    32    34 1   
    81    32   101 1   
    82    33   102 1   
    83    34    35 1   
    84    34    37 1   
    85    34   103 1   
    86    35    36 1   
    87    36   104 1   
    88    36   105 1   
    89    36   106 1   
    90    37    38 1   
    91    37    41 1   
    92    37   107 1   
    93    38    39 1   
    94    38    40 1   
    95    38   108 1   
    96    39   109 1   
    97    39   110 1   
    98    39   111 1   
    99    40   112 1   
   100    40   113 1   
   101    40   114 1   
   102    41    42 1   
   103    42    43 2   
   104    42    44 1   
   105    44    45 1   
   106    44   115 1   
   107    44   116 1   
   108    45    46 1   
   109    45    47 1   
   110    45   117 1   
   111    46   118 1   
   112    47    48 1   
   113    47    51 2   
   114    48    49 1   
   115    48    50 1   
   116    51    52 1   
   117    51    53 1   
   118    52   119 1   
   119    52   120 1   
   120    52   121 1   
   121    53    54 1   
   122    53    55 1   
@<TRIPOS>SUBSTRUCTURE
     1 E7B         1 TEMP              0 ****  ****    0 ROOT
