@<TRIPOS>MOLECULE
E7B
  121   122     1     0     0
SMALL
abcg2


@<TRIPOS>ATOM
      1 C1           6.6740    -5.4580    -3.2180 c3         1 E7B      -0.200100
      2 C2           6.8100    -4.1500    -2.4790 c          1 E7B       0.569100
      3 O3           5.9360    -3.3130    -2.5260 o          1 E7B      -0.510100
      4 C3           8.0940    -3.9410    -1.7010 c3         1 E7B      -0.162700
      5 C30          9.2860    -4.0120    -2.6640 c3         1 E7B      -0.083100
      6 C4           8.0820    -2.6510    -0.8870 c3         1 E7B      -0.063400
      7 C5           9.2150    -2.5800     0.1330 c3         1 E7B      -0.068400
      8 C6           9.1440    -1.3330     1.0020 c6         1 E7B       0.179300
      9 O2           9.2570    -0.2260     0.1160 os         1 E7B      -0.485000
     10 C7          10.2140    -1.2550     2.0900 c6         1 E7B      -0.091700
     11 C25         10.1100    -2.3980     3.0900 c3         1 E7B      -0.084100
     12 C8          10.0890     0.0940     2.7990 c6         1 E7B      -0.069400
     13 C9          10.1220     1.2480     1.8070 c6         1 E7B      -0.085400
     14 C10          9.1160     1.0540     0.6780 c6         1 E7B       0.402000
     15 O1           7.8390     1.2190     1.2430 os         1 E7B      -0.485000
     16 C11          9.3310     2.0460    -0.4600 c6         1 E7B      -0.085400
     17 C12          8.1680     2.0220    -1.4450 c6         1 E7B      -0.069400
     18 C13          6.8230     2.1790    -0.7290 c6         1 E7B      -0.088700
     19 C28          6.6280     3.5930    -0.1890 c3         1 E7B      -0.081100
     20 C14          6.7340     1.1010     0.3560 c6         1 E7B       0.180300
     21 C15          5.4640     1.1230     1.2150 c3         1 E7B      -0.052700
     22 C26          5.5060     0.0170     2.2680 c3         1 E7B      -0.084100
     23 C16          4.2250     0.9970     0.3230 c3         1 E7B      -0.076400
     24 C17          2.8990     1.0910     1.0710 c3         1 E7B      -0.106400
     25 C18          1.6940     1.0030     0.1410 c3         1 E7B       0.172300
     26 O4           1.7250     1.9920    -0.8720 oh         1 E7B      -0.652000
     27 C19          0.3590     1.0810     0.8860 c3         1 E7B      -0.200700
     28 C27          0.1760    -0.0080     1.9480 c3         1 E7B      -0.081100
     29 C20         -0.7950     0.9560    -0.0930 c          1 E7B       0.585100
     30 O13         -0.8120     0.0910    -0.9390 o          1 E7B      -0.495100
     31 C21         -1.9120     1.9520     0.0710 c3         1 E7B      -0.214400
     32 C22         -3.2250     1.5280    -0.5770 c3         1 E7B       0.197300
     33 O5          -3.7270     0.3610     0.0280 oh         1 E7B      -0.681000
     34 C23         -4.2230     2.6910    -0.5730 c3         1 E7B       0.123300
     35 O6          -4.5310     2.9760     0.7710 os         1 E7B      -0.459000
     36 C29         -4.8110     4.3290     1.0430 c3         1 E7B       0.151900
     37 C24         -5.5110     2.4570    -1.3760 c3         1 E7B       0.157300
     38 C31         -5.3060     2.0200    -2.8280 c3         1 E7B      -0.065700
     39 C33         -6.6480     1.9170    -3.5480 c3         1 E7B      -0.089600
     40 C32         -4.3910     2.9890    -3.5710 c3         1 E7B      -0.089600
     41 O7          -6.2780     1.4400    -0.7270 os         1 E7B      -0.422100
     42 C34         -7.3270     1.7500     0.0220 c          1 E7B       0.617100
     43 O12         -7.7300     2.8740     0.2040 o          1 E7B      -0.542000
     44 C35         -7.9780     0.5260     0.6050 c3         1 E7B      -0.162400
     45 C36         -9.4600     0.4700     0.1990 c3         1 E7B       0.252500
     46 O11         -9.5990     0.6280    -1.1920 oh         1 E7B      -0.761000
     47 C37        -10.0830    -0.8210     0.7040 ce         1 E7B      -0.274400
     48 C40         -9.8600    -2.0530    -0.1490 c          1 E7B       0.714200
     49 O14        -10.2420    -3.1540     0.2670 o          1 E7B      -0.724500
     50 O9          -9.2740    -1.8720    -1.2600 o          1 E7B      -0.724500
     51 C38        -10.7250    -0.9010     1.8800 cf         1 E7B      -0.124400
     52 C41        -10.9140     0.2520     2.8260 c3         1 E7B      -0.044900
     53 C39        -11.3220    -2.1700     2.4660 c          1 E7B       0.757200
     54 O10        -12.5100    -2.4030     2.1750 o          1 E7B      -0.749000
     55 O8         -10.6130    -2.7710     3.2950 o          1 E7B      -0.749000
     56 H1           7.2500    -6.2590    -2.7560 hc         1 E7B       0.058700
     57 H1A          5.6280    -5.7530    -3.2860 hc         1 E7B       0.058700
     58 H1B          7.0490    -5.3350    -4.2370 hc         1 E7B       0.058700
     59 H3           8.1730    -4.7970    -1.0170 hc         1 E7B       0.057700
     60 H30         10.2260    -3.9490    -2.1170 hc         1 E7B       0.036367
     61 H30A         9.3070    -4.9440    -3.2280 hc         1 E7B       0.036367
     62 H30B         9.2570    -3.1850    -3.3760 hc         1 E7B       0.036367
     63 H4           8.1260    -1.7910    -1.5590 hc         1 E7B       0.060700
     64 H4A          7.1320    -2.5710    -0.3490 hc         1 E7B       0.060700
     65 H5           9.1590    -3.4590     0.7800 hc         1 E7B       0.041200
     66 H5A         10.1940    -2.6170    -0.3570 hc         1 E7B       0.041200
     67 H6           8.1600    -1.3180     1.4980 h1         1 E7B       0.048700
     68 H7          11.1970    -1.2990     1.6020 hc         1 E7B       0.050700
     69 H25         10.3230    -3.3680     2.6400 hc         1 E7B       0.033700
     70 H25A        10.8200    -2.2560     3.9060 hc         1 E7B       0.033700
     71 H25B         9.1100    -2.4460     3.5290 hc         1 E7B       0.033700
     72 H8           9.1570     0.1120     3.3740 hc         1 E7B       0.046200
     73 H8A         10.8990     0.2080     3.5240 hc         1 E7B       0.046200
     74 H9           9.9360     2.2030     2.3040 hc         1 E7B       0.051700
     75 H9A         11.1190     1.3150     1.3600 hc         1 E7B       0.051700
     76 H11          9.4400     3.0450    -0.0280 hc         1 E7B       0.050200
     77 H11A        10.2740     1.8230    -0.9640 hc         1 E7B       0.050200
     78 H12          8.2920     2.8170    -2.1840 hc         1 E7B       0.046200
     79 H12A         8.1720     1.0810    -2.0020 hc         1 E7B       0.046200
     80 H13          6.0390     1.9840    -1.4660 hc         1 E7B       0.062700
     81 H28          6.7840     4.3270    -0.9820 hc         1 E7B       0.032367
     82 H28A         5.6190     3.7470     0.1960 hc         1 E7B       0.032367
     83 H28B         7.3240     3.8260     0.6180 hc         1 E7B       0.032367
     84 H14          6.7660     0.1220    -0.1490 h1         1 E7B       0.048700
     85 H15          5.4130     2.0880     1.7340 hc         1 E7B       0.052700
     86 H26          5.5160    -0.9690     1.7960 hc         1 E7B       0.034367
     87 H26A         6.3900     0.0930     2.8990 hc         1 E7B       0.034367
     88 H26B         4.6360     0.0590     2.9230 hc         1 E7B       0.034367
     89 H16          4.2430     1.7760    -0.4410 hc         1 E7B       0.050700
     90 H16A         4.2650     0.0420    -0.2160 hc         1 E7B       0.050700
     91 H17          2.8250     0.2830     1.8010 hc         1 E7B       0.042700
     92 H17A         2.8580     2.0260     1.6450 hc         1 E7B       0.042700
     93 H18          1.7370     0.0440    -0.3870 h1         1 E7B       0.094700
     94 HO4          1.7780     2.8560    -0.4470 ho         1 E7B       0.428000
     95 H19          0.2950     2.0570     1.3840 hc         1 E7B       0.047700
     96 H27          0.3700    -0.9970     1.5310 hc         1 E7B       0.043700
     97 H27A         0.8490     0.1460     2.7890 hc         1 E7B       0.043700
     98 H27B        -0.8400    -0.0060     2.3460 hc         1 E7B       0.043700
     99 H21         -2.0480     2.1750     1.1330 hc         1 E7B       0.059200
    100 H21A        -1.5400     2.8870    -0.3690 hc         1 E7B       0.059200
    101 H22         -3.0220     1.2640    -1.6190 h1         1 E7B       0.088700
    102 HO5         -4.0650     0.5930     0.8990 ho         1 E7B       0.515000
    103 H23         -3.7130     3.5470    -1.0360 h1         1 E7B       0.022700
    104 H29         -5.0430     4.4090     2.1050 h1         1 E7B       0.028033
    105 H29A        -3.9500     4.9710     0.8270 h1         1 E7B       0.028033
    106 H29B        -5.6710     4.7030     0.4810 h1         1 E7B       0.028033
    107 H24         -6.0780     3.3930    -1.3840 h1         1 E7B       0.058700
    108 H31         -4.8380     1.0290    -2.8280 hc         1 E7B       0.074700
    109 H33         -7.1210     2.8990    -3.6270 hc         1 E7B       0.033533
    110 H33A        -6.5060     1.5390    -4.5620 hc         1 E7B       0.033533
    111 H33B        -7.3470     1.2510    -3.0410 hc         1 E7B       0.033533
    112 H32         -3.3750     3.0040    -3.1740 hc         1 E7B       0.033533
    113 H32A        -4.3200     2.7090    -4.6230 hc         1 E7B       0.033533
    114 H32B        -4.7790     4.0100    -3.5280 hc         1 E7B       0.033533
    115 H2          -7.4630    -0.3790     0.2810 hc         1 E7B       0.078700
    116 H2'A        -7.8990     0.5790     1.6940 hc         1 E7B       0.078700
    117 H10         -9.9540     1.3280     0.6600 h1         1 E7B       0.027700
    118 HO11        -9.4070    -0.2890    -1.5220 ho         1 E7B       0.516000
    119 H41        -11.9180     0.2350     3.2540 hc         1 E7B       0.009367
    120 H41A       -10.2160     0.1650     3.6630 hc         1 E7B       0.009367
    121 H41B       -10.7630     1.2320     2.3800 hc         1 E7B       0.009367
@<TRIPOS>BOND
     1     1     2 1   
     2     1    56 1   
     3     1    57 1   
     4     1    58 1   
     5     2     3 2   
     6     2     4 1   
     7     4     5 1   
     8     4     6 1   
     9     4    59 1   
    10     5    60 1   
    11     5    61 1   
    12     5    62 1   
    13     6     7 1   
    14     6    63 1   
    15     6    64 1   
    16     7     8 1   
    17     7    65 1   
    18     7    66 1   
    19     8     9 1   
    20     8    10 1   
    21     8    67 1   
    22     9    14 1   
    23    10    11 1   
    24    10    12 1   
    25    10    68 1   
    26    11    69 1   
    27    11    70 1   
    28    11    71 1   
    29    12    13 1   
    30    12    72 1   
    31    12    73 1   
    32    13    14 1   
    33    13    74 1   
    34    13    75 1   
    35    14    15 1   
    36    14    16 1   
    37    15    20 1   
    38    16    17 1   
    39    16    76 1   
    40    16    77 1   
    41    17    18 1   
    42    17    78 1   
    43    17    79 1   
    44    18    19 1   
    45    18    20 1   
    46    18    80 1   
    47    19    81 1   
    48    19    82 1   
    49    19    83 1   
    50    20    21 1   
    51    20    84 1   
    52    21    22 1   
    53    21    23 1   
    54    21    85 1   
    55    22    86 1   
    56    22    87 1   
    57    22    88 1   
    58    23    24 1   
    59    23    89 1   
    60    23    90 1   
    61    24    25 1   
    62    24    91 1   
    63    24    92 1   
    64    25    26 1   
    65    25    27 1   
    66    25    93 1   
    67    26    94 1   
    68    27    28 1   
    69    27    29 1   
    70    27    95 1   
    71    28    96 1   
    72    28    97 1   
    73    28    98 1   
    74    29    30 2   
    75    29    31 1   
    76    31    32 1   
    77    31    99 1   
    78    31   100 1   
    79    32    33 1   
    80    32    34 1   
    81    32   101 1   
    82    33   102 1   
    83    34    35 1   
    84    34    37 1   
    85    34   103 1   
    86    35    36 1   
    87    36   104 1   
    88    36   105 1   
    89    36   106 1   
    90    37    38 1   
    91    37    41 1   
    92    37   107 1   
    93    38    39 1   
    94    38    40 1   
    95    38   108 1   
    96    39   109 1   
    97    39   110 1   
    98    39   111 1   
    99    40   112 1   
   100    40   113 1   
   101    40   114 1   
   102    41    42 1   
   103    42    43 2   
   104    42    44 1   
   105    44    45 1   
   106    44   115 1   
   107    44   116 1   
   108    45    46 1   
   109    45    47 1   
   110    45   117 1   
   111    46   118 1   
   112    47    48 1   
   113    47    51 2   
   114    48    49 1   
   115    48    50 1   
   116    51    52 1   
   117    51    53 1   
   118    52   119 1   
   119    52   120 1   
   120    52   121 1   
   121    53    54 1   
   122    53    55 1   
@<TRIPOS>SUBSTRUCTURE
     1 E7B         1 TEMP              0 ****  ****    0 ROOT
