@<TRIPOS>MOLECULE
E7C
   55    57     1     0     0
SMALL
No Charge or Current Charge


@<TRIPOS>ATOM
      1 CAB        -28.9300    27.0350     9.0130 c3         1 E7C      -0.062400
      2 CAU        -28.6990    25.5340     9.0340 c2         1 E7C      -0.111400
      3 CAC        -27.4580    25.1430     8.2430 c3         1 E7C      -0.062400
      4 CAI        -29.5250    24.6970     9.6930 c2         1 E7C      -0.245200
      5 CAQ        -29.4400    23.1850     9.8290 c3         1 E7C       0.005100
      6 CBD        -30.6490    22.4730     9.2200 ca         1 E7C      -0.166300
      7 CAP        -31.3840    21.5610    10.0030 ca         1 E7C      -0.058000
      8 CBA        -31.0280    22.6800     7.8760 ca         1 E7C       0.153100
      9 OAH        -30.3470    23.5650     7.1000 oh         1 E7C      -0.547100
     10 CAL        -32.1180    21.9850     7.3310 ca         1 E7C      -0.149000
     11 CAM        -32.8400    21.0730     8.1170 ca         1 E7C      -0.064000
     12 CBB        -32.4730    20.8530     9.4580 ca         1 E7C      -0.134300
     13 CAR        -33.2350    19.8410    10.3150 c3         1 E7C      -0.005100
     14 CBE        -32.7940    18.3590    10.1020 c5         1 E7C       0.171200
     15 CAW        -33.5880    17.3230    10.9890 c          1 E7C       0.590100
     16 OAE        -33.7570    16.1410    10.7090 o          1 E7C      -0.455000
     17 OAS        -34.2370    17.9360    12.0380 os         1 E7C      -0.437100
     18 CAA        -35.0580    17.1270    12.9010 c3         1 E7C       0.150900
     19 OAT        -33.0650    18.0120     8.7010 os         1 E7C      -0.398100
     20 CAV        -31.9150    17.5790     8.1120 c          1 E7C       0.638300
     21 OAD        -31.8080    17.2100     6.9500 o          1 E7C      -0.481000
     22 CAX        -30.8210    17.7400     9.1040 ce         1 E7C       0.019900
     23 OAF        -29.5220    17.4590     8.7640 oh         1 E7C      -0.495100
     24 CAY        -31.2440    18.1980    10.3030 cf         1 E7C      -0.101400
     25 CBC        -30.4750    18.6290    11.4990 ca         1 E7C      -0.062800
     26 CAN        -30.9820    18.4840    12.8080 ca         1 E7C      -0.052000
     27 CAJ        -30.2420    18.9270    13.9190 ca         1 E7C      -0.182000
     28 CAZ        -28.9870    19.5240    13.7350 ca         1 E7C       0.149100
     29 OAG        -28.2660    19.9580    14.8060 oh         1 E7C      -0.529100
     30 CAK        -28.4710    19.6760    12.4430 ca         1 E7C      -0.182000
     31 CAO        -29.2080    19.2300    11.3320 ca         1 E7C      -0.052000
     32 H1         -29.8220    27.3190     9.5840 hc         1 E7C       0.043700
     33 H2         -28.0780    27.5720     9.4470 hc         1 E7C       0.043700
     34 H3         -29.0680    27.3990     7.9880 hc         1 E7C       0.043700
     35 H4         -27.2770    24.0650     8.2130 hc         1 E7C       0.043700
     36 H5         -27.5360    25.4810     7.2020 hc         1 E7C       0.043700
     37 H6         -26.5620    25.6070     8.6720 hc         1 E7C       0.043700
     38 H7         -30.3820    25.1100    10.2290 ha         1 E7C       0.176000
     39 H8         -28.5270    22.7770     9.3850 hc         1 E7C       0.058200
     40 H9         -29.3600    22.9380    10.8960 hc         1 E7C       0.058200
     41 H10        -31.1010    21.3920    11.0390 ha         1 E7C       0.114000
     42 H11        -29.7700    24.0790     7.7080 ho         1 E7C       0.477000
     43 H12        -32.4030    22.1530     6.2960 ha         1 E7C       0.131000
     44 H13        -33.6810    20.5360     7.6820 ha         1 E7C       0.124000
     45 H14        -33.1140    20.1120    11.3710 hc         1 E7C       0.072700
     46 H15        -34.3100    19.9300    10.1150 hc         1 E7C       0.072700
     47 H16        -35.5020    17.7440    13.6920 h1         1 E7C       0.053700
     48 H17        -35.8740    16.6560    12.3390 h1         1 E7C       0.053700
     49 H18        -34.4630    16.3370    13.3800 h1         1 E7C       0.053700
     50 H19        -29.5260    17.1550     7.8270 ho         1 E7C       0.490000
     51 H20        -31.9420    18.0140    12.9850 ha         1 E7C       0.122000
     52 H21        -30.6510    18.8010    14.9180 ha         1 E7C       0.123000
     53 H22        -28.7770    19.7700    15.6210 ho         1 E7C       0.467000
     54 H23        -27.5000    20.1430    12.2970 ha         1 E7C       0.123000
     55 H24        -28.7980    19.3780    10.3360 ha         1 E7C       0.122000
@<TRIPOS>BOND
     1     1     2 1   
     2     1    32 1   
     3     1    33 1   
     4     1    34 1   
     5     2     3 1   
     6     2     4 2   
     7     3    35 1   
     8     3    36 1   
     9     3    37 1   
    10     4     5 1   
    11     4    38 1   
    12     5     6 1   
    13     5    39 1   
    14     5    40 1   
    15     6     7 ar  
    16     6     8 ar  
    17     7    12 ar  
    18     7    41 1   
    19     8     9 1   
    20     8    10 ar  
    21     9    42 1   
    22    10    11 ar  
    23    10    43 1   
    24    11    12 ar  
    25    11    44 1   
    26    12    13 1   
    27    13    14 1   
    28    13    45 1   
    29    13    46 1   
    30    14    15 1   
    31    14    19 1   
    32    14    24 1   
    33    15    16 2   
    34    15    17 1   
    35    17    18 1   
    36    18    47 1   
    37    18    48 1   
    38    18    49 1   
    39    19    20 1   
    40    20    21 2   
    41    20    22 1   
    42    22    23 1   
    43    22    24 2   
    44    23    50 1   
    45    24    25 1   
    46    25    26 ar  
    47    25    31 ar  
    48    26    27 ar  
    49    26    51 1   
    50    27    28 ar  
    51    27    52 1   
    52    28    29 1   
    53    28    30 ar  
    54    29    53 1   
    55    30    31 ar  
    56    30    54 1   
    57    31    55 1   
@<TRIPOS>SUBSTRUCTURE
     1 E7C         1 TEMP              0 ****  ****    0 ROOT
