@<TRIPOS>MOLECULE
E7C
   55    57     1     0     0
SMALL
bcc


@<TRIPOS>ATOM
      1 CAB        -28.8900    26.9320     9.0910 c3         1 E7C      -0.062400
      2 CAU        -28.6570    25.4500     9.1410 c2         1 E7C      -0.111400
      3 CAC        -27.3440    25.0100     8.5650 c3         1 E7C      -0.062400
      4 CAI        -29.5740    24.6320     9.6740 c2         1 E7C      -0.195200
      5 CAQ        -29.5080    23.1360     9.8100 c3         1 E7C       0.005100
      6 CBD        -30.7120    22.4380     9.2260 ca         1 E7C      -0.166300
      7 CAP        -31.4720    21.5740    10.0040 ca         1 E7C      -0.076000
      8 CBA        -31.0740    22.6100     7.8850 ca         1 E7C       0.153100
      9 OAH        -30.3930    23.4260     7.0480 oh         1 E7C      -0.508100
     10 CAL        -32.1610    21.9160     7.3640 ca         1 E7C      -0.167000
     11 CAM        -32.8850    21.0420     8.1600 ca         1 E7C      -0.082000
     12 CBB        -32.5490    20.8550     9.4970 ca         1 E7C      -0.134300
     13 CAR        -33.2920    19.8810    10.3700 c3         1 E7C      -0.005100
     14 CBE        -32.7990    18.4450    10.1670 c5         1 E7C       0.148000
     15 CAW        -33.4920    17.3740    11.0350 c          1 E7C       0.639100
     16 OAE        -33.3050    16.2020    10.8520 o          1 E7C      -0.504000
     17 OAS        -34.2870    17.8800    11.9500 os         1 E7C      -0.413900
     18 CAA        -34.9760    16.9650    12.8120 c3         1 E7C       0.127700
     19 OAT        -33.1190    18.0370     8.8360 os         1 E7C      -0.374900
     20 CAV        -32.0230    17.6190     8.2020 c          1 E7C       0.713800
     21 OAD        -32.0280    17.1860     7.0810 o          1 E7C      -0.556500
     22 CAX        -30.8760    17.8010     9.0950 ce         1 E7C       0.019900
     23 OAF        -29.6400    17.4900     8.7150 oh         1 E7C      -0.456100
     24 CAY        -31.2940    18.3060    10.2640 cf         1 E7C      -0.101400
     25 CBC        -30.5000    18.7360    11.4070 ca         1 E7C      -0.062800
     26 CAN        -31.0140    18.7790    12.7040 ca         1 E7C      -0.070000
     27 CAJ        -30.2580    19.2320    13.7710 ca         1 E7C      -0.200000
     28 CAZ        -28.9530    19.6700    13.5660 ca         1 E7C       0.149100
     29 OAG        -28.1700    20.1240    14.5580 oh         1 E7C      -0.490100
     30 CAK        -28.4240    19.6480    12.2760 ca         1 E7C      -0.200000
     31 CAO        -29.1850    19.1860    11.2220 ca         1 E7C      -0.070000
     32 H1         -29.8590    27.2110     9.5010 hc         1 E7C       0.043700
     33 H2         -28.1170    27.4620     9.6530 hc         1 E7C       0.043700
     34 H3         -28.8330    27.3000     8.0640 hc         1 E7C       0.043700
     35 H4         -27.1810    23.9360     8.6050 hc         1 E7C       0.043700
     36 H5         -27.2590    25.3240     7.5220 hc         1 E7C       0.043700
     37 H6         -26.5210    25.4910     9.0980 hc         1 E7C       0.043700
     38 H7         -30.4840    25.0810    10.0640 ha         1 E7C       0.126000
     39 H8         -28.5990    22.7360     9.3530 hc         1 E7C       0.058200
     40 H9         -29.4440    22.8780    10.8710 hc         1 E7C       0.058200
     41 H10        -31.2000    21.4550    11.0470 ha         1 E7C       0.132000
     42 H11        -29.9100    24.0950     7.5550 ho         1 E7C       0.438000
     43 H12        -32.4380    22.0660     6.3270 ha         1 E7C       0.149000
     44 H13        -33.7290    20.5170     7.7320 ha         1 E7C       0.142000
     45 H14        -33.1620    20.1530    11.4180 hc         1 E7C       0.072700
     46 H15        -34.3650    19.9180    10.1670 hc         1 E7C       0.072700
     47 H16        -35.5660    17.5810    13.4820 h1         1 E7C       0.053700
     48 H17        -35.6320    16.3110    12.2410 h1         1 E7C       0.053700
     49 H18        -34.2720    16.3670    13.3880 h1         1 E7C       0.053700
     50 H19        -29.6460    17.1380     7.8150 ho         1 E7C       0.451000
     51 H20        -32.0240    18.4590    12.9190 ha         1 E7C       0.140000
     52 H21        -30.6910    19.2420    14.7650 ha         1 E7C       0.141000
     53 H22        -28.6370    20.0930    15.4010 ho         1 E7C       0.428000
     54 H23        -27.4150    20.0010    12.1010 ha         1 E7C       0.141000
     55 H24        -28.7530    19.2100    10.2320 ha         1 E7C       0.140000
@<TRIPOS>BOND
     1     1     2 1   
     2     1    32 1   
     3     1    33 1   
     4     1    34 1   
     5     2     3 1   
     6     2     4 2   
     7     3    35 1   
     8     3    36 1   
     9     3    37 1   
    10     4     5 1   
    11     4    38 1   
    12     5     6 1   
    13     5    39 1   
    14     5    40 1   
    15     6     7 ar  
    16     6     8 ar  
    17     7    12 ar  
    18     7    41 1   
    19     8     9 1   
    20     8    10 ar  
    21     9    42 1   
    22    10    11 ar  
    23    10    43 1   
    24    11    12 ar  
    25    11    44 1   
    26    12    13 1   
    27    13    14 1   
    28    13    45 1   
    29    13    46 1   
    30    14    15 1   
    31    14    19 1   
    32    14    24 1   
    33    15    16 2   
    34    15    17 1   
    35    17    18 1   
    36    18    47 1   
    37    18    48 1   
    38    18    49 1   
    39    19    20 1   
    40    20    21 2   
    41    20    22 1   
    42    22    23 1   
    43    22    24 2   
    44    23    50 1   
    45    24    25 1   
    46    25    26 ar  
    47    25    31 ar  
    48    26    27 ar  
    49    26    51 1   
    50    27    28 ar  
    51    27    52 1   
    52    28    29 1   
    53    28    30 ar  
    54    29    53 1   
    55    30    31 ar  
    56    30    54 1   
    57    31    55 1   
@<TRIPOS>SUBSTRUCTURE
     1 E7C         1 TEMP              0 ****  ****    0 ROOT
