@<TRIPOS>MOLECULE
E7D
   58    59     1     0     0
SMALL
No Charge or Current Charge


@<TRIPOS>ATOM
      1 C01          8.5160    -2.8600    -0.4800 c3         1 E7D      -0.088100
      2 C02          7.0840    -2.4160    -0.8370 c3         1 E7D      -0.074400
      3 C03          6.4740    -1.4480     0.2010 c3         1 E7D      -0.075400
      4 C04          5.0390    -1.0040    -0.1580 c3         1 E7D      -0.076400
      5 C05          4.4290    -0.0360     0.8830 c3         1 E7D      -0.067400
      6 C06          3.0010     0.4640     0.5180 c3         1 E7D      -0.129700
      7 C07          2.4400     1.4820     1.5440 c3         1 E7D       0.141800
      8 N08          3.2240     2.7430     1.6660 n3         1 E7D      -0.499100
      9 O09          3.0880     3.4750     0.3870 oh         1 E7D      -0.481300
     10 C10          2.7590     3.6470     2.7360 c3         1 E7D       0.372800
     11 O11          3.1060     3.0410     3.9720 oh         1 E7D      -0.640000
     12 C12          2.0090    -0.7030     0.3780 c          1 E7D       0.597100
     13 O13          1.7170    -1.4410     1.3080 o          1 E7D      -0.607100
     14 N14          1.4660    -0.8640    -0.8740 ns         1 E7D      -0.521900
     15 C15          0.5080    -1.8970    -1.2250 c3         1 E7D       0.269400
     16 N16         -0.8600    -1.4480    -1.0530 ns         1 E7D      -0.505900
     17 C17         -1.6250    -0.8790    -2.0400 c          1 E7D       0.642300
     18 O18         -1.2080    -0.7110    -3.1800 o          1 E7D      -0.597100
     19 C19         -2.9850    -0.4970    -1.5820 cc         1 E7D      -0.061100
     20 C20         -3.9710     0.0940    -2.3510 cd         1 E7D      -0.158200
     21 C21         -5.1090     0.2850    -1.5130 ca         1 E7D      -0.096800
     22 C22         -6.3720     0.8320    -1.7610 ca         1 E7D      -0.091000
     23 C23         -7.2850     0.8710    -0.6860 ca         1 E7D      -0.092000
     24 C24         -6.9190     0.3700     0.5880 ca         1 E7D      -0.183000
     25 C25         -5.6260    -0.1790     0.8030 ca         1 E7D       0.149100
     26 O26         -5.2150    -0.6810     2.0240 os         1 E7D      -0.324100
     27 C27         -6.0750    -0.6850     3.1760 c3         1 E7D       0.146900
     28 C28         -4.7380    -0.2040    -0.2870 ca         1 E7D       0.042100
     29 O29         -3.4440    -0.6960    -0.2750 os         1 E7D      -0.154200
     30 H1           8.9060    -3.5440    -1.2430 hc         1 E7D       0.031700
     31 H2           9.1870    -1.9940    -0.4190 hc         1 E7D       0.031700
     32 H3           8.5310    -3.3790     0.4860 hc         1 E7D       0.031700
     33 H4           7.0970    -1.9330    -1.8220 hc         1 E7D       0.036200
     34 H5           6.4470    -3.3050    -0.9240 hc         1 E7D       0.036200
     35 H6           6.4650    -1.9340     1.1840 hc         1 E7D       0.039700
     36 H7           7.1150    -0.5620     0.2870 hc         1 E7D       0.039700
     37 H8           5.0490    -0.5160    -1.1410 hc         1 E7D       0.036700
     38 H9           4.4010    -0.5310     1.8620 hc         1 E7D       0.060700
     39 H10          3.0660     0.9640    -0.4550 hc         1 E7D       0.061700
     40 H11          1.4030     1.7210     1.2680 h1         1 E7D       0.055700
     41 H12          2.3950     0.9780     2.5200 h1         1 E7D       0.055700
     42 H13          4.0080     3.5430     0.0330 ho         1 E7D       0.460000
     43 H14          3.2700     4.6160     2.6590 h2         1 E7D       0.050700
     44 H15          1.7560    -0.2140    -1.5930 hn         1 E7D       0.327500
     45 H16          0.6670    -2.1830    -2.2730 h2         1 E7D       0.073700
     46 H17          0.6740    -2.7760    -0.5890 h2         1 E7D       0.073700
     47 H18         -1.2920    -1.5430    -0.1440 hn         1 E7D       0.344500
     48 H19         -3.8820     0.3600    -3.4020 ha         1 E7D       0.230000
     49 H20         -6.6410     1.2130    -2.7440 ha         1 E7D       0.126000
     50 H21         -8.2780     1.2890    -0.8380 ha         1 E7D       0.116000
     51 H22         -7.6480     0.4160     1.3920 ha         1 E7D       0.121000
     52 H23         -5.5560    -1.1250     4.0360 h1         1 E7D       0.044367
     53 H24         -6.3710     0.3370     3.4450 h1         1 E7D       0.044367
     54 H25         -6.9800    -1.2760     2.9860 h1         1 E7D       0.044367
     55 H26          4.4060    -1.8950    -0.2490 hc         1 E7D       0.036700
     56 H27          5.0960     0.8280     0.9880 hc         1 E7D       0.060700
     57 H28          1.6740     3.8010     2.6800 h2         1 E7D       0.050700
     58 H29          4.0310     2.7470     3.8470 ho         1 E7D       0.445000
@<TRIPOS>BOND
     1     1     2 1   
     2     1    30 1   
     3     1    31 1   
     4     1    32 1   
     5     2     3 1   
     6     2    33 1   
     7     2    34 1   
     8     3     4 1   
     9     3    35 1   
    10     3    36 1   
    11     4     5 1   
    12     4    37 1   
    13     4    55 1   
    14     5     6 1   
    15     5    38 1   
    16     5    56 1   
    17     6     7 1   
    18     6    12 1   
    19     6    39 1   
    20     7     8 1   
    21     7    40 1   
    22     7    41 1   
    23     8     9 1   
    24     8    10 1   
    25     9    42 1   
    26    10    11 1   
    27    10    43 1   
    28    10    57 1   
    29    11    58 1   
    30    12    13 2   
    31    12    14 1   
    32    14    15 1   
    33    14    44 1   
    34    15    16 1   
    35    15    45 1   
    36    15    46 1   
    37    16    17 1   
    38    16    47 1   
    39    17    18 2   
    40    17    19 1   
    41    19    20 2   
    42    19    29 1   
    43    20    21 1   
    44    20    48 1   
    45    21    22 ar  
    46    21    28 ar  
    47    22    23 ar  
    48    22    49 1   
    49    23    24 ar  
    50    23    50 1   
    51    24    25 ar  
    52    24    51 1   
    53    25    26 1   
    54    25    28 ar  
    55    26    27 1   
    56    27    52 1   
    57    27    53 1   
    58    27    54 1   
    59    28    29 1   
@<TRIPOS>SUBSTRUCTURE
     1 E7D         1 TEMP              0 ****  ****    0 ROOT
