@<TRIPOS>MOLECULE
E7D
   58    59     1     0     0
SMALL
bcc


@<TRIPOS>ATOM
      1 C01          8.4250    -2.7890     0.5640 c3         1 E7D      -0.088100
      2 C02          7.1580    -2.3900    -0.1800 c3         1 E7D      -0.074400
      3 C03          6.2430    -1.4980     0.6470 c3         1 E7D      -0.075400
      4 C04          4.9720    -1.0860    -0.0860 c3         1 E7D      -0.076400
      5 C05          4.0930    -0.1600     0.7450 c3         1 E7D      -0.067400
      6 C06          2.8560     0.3380     0.0010 c3         1 E7D      -0.129700
      7 C07          2.0880     1.4030     0.7900 c3         1 E7D       0.141800
      8 N08          2.8840     2.5910     1.0280 n3         1 E7D      -0.499100
      9 O09          3.0500     3.2510    -0.2070 oh         1 E7D      -0.442300
     10 C10          2.2110     3.5480     1.9050 c3         1 E7D       0.349600
     11 O11          2.1560     3.0740     3.2150 oh         1 E7D      -0.577800
     12 C12          1.8880    -0.8000    -0.2650 c          1 E7D       0.664100
     13 O13          1.4620    -1.5110     0.6330 o          1 E7D      -0.607100
     14 N14          1.5000    -0.9560    -1.5450 ns         1 E7D      -0.588900
     15 C15          0.4700    -1.8930    -1.9130 c3         1 E7D       0.269400
     16 N16         -0.8480    -1.4890    -1.4900 ns         1 E7D      -0.572900
     17 C17         -1.5220    -0.5180    -2.1300 c          1 E7D       0.709300
     18 O18         -1.1350     0.0080    -3.1630 o          1 E7D      -0.597100
     19 C19         -2.7990    -0.0940    -1.5270 cc         1 E7D      -0.061100
     20 C20         -3.6860     0.8260    -1.9690 cd         1 E7D      -0.108200
     21 C21         -4.7360     0.8640    -0.9970 ca         1 E7D      -0.096800
     22 C22         -5.9280     1.5850    -0.8500 ca         1 E7D      -0.109000
     23 C23         -6.6850     1.3290     0.2720 ca         1 E7D      -0.110000
     24 C24         -6.2980     0.3880     1.2420 ca         1 E7D      -0.201000
     25 C25         -5.1240    -0.3380     1.1110 ca         1 E7D       0.149100
     26 O26         -4.6510    -1.2580     1.9620 os         1 E7D      -0.300900
     27 C27         -5.4030    -1.5220     3.1340 c3         1 E7D       0.123700
     28 C28         -4.3680    -0.0680    -0.0310 ca         1 E7D       0.042100
     29 O29         -3.1950    -0.6510    -0.3520 os         1 E7D      -0.154200
     30 H1           9.0720    -3.4160    -0.0500 hc         1 E7D       0.031700
     31 H2           9.0010    -1.9100     0.8610 hc         1 E7D       0.031700
     32 H3           8.1890    -3.3470     1.4720 hc         1 E7D       0.031700
     33 H4           7.4250    -1.8720    -1.1070 hc         1 E7D       0.036200
     34 H5           6.6130    -3.2890    -0.4830 hc         1 E7D       0.036200
     35 H6           5.9750    -2.0140     1.5760 hc         1 E7D       0.039700
     36 H7           6.7910    -0.5980     0.9510 hc         1 E7D       0.039700
     37 H8           5.2390    -0.5870    -1.0240 hc         1 E7D       0.036700
     38 H9           3.7860    -0.6640     1.6650 hc         1 E7D       0.060700
     39 H10          3.1690     0.7720    -0.9540 hc         1 E7D       0.061700
     40 H11          1.1470     1.6520     0.2730 h1         1 E7D       0.055700
     41 H12          1.8190     0.9840     1.7620 h1         1 E7D       0.055700
     42 H13          4.0040     3.2950    -0.3250 ho         1 E7D       0.421000
     43 H14          2.8150     4.4560     1.9010 h2         1 E7D       0.050700
     44 H15          1.8190    -0.3020    -2.2410 hn         1 E7D       0.327500
     45 H16          0.4920    -2.0060    -2.9940 h2         1 E7D       0.073700
     46 H17          0.6730    -2.8640    -1.4680 h2         1 E7D       0.073700
     47 H18         -1.1720    -1.8270    -0.5970 hn         1 E7D       0.344500
     48 H19         -3.6060     1.4100    -2.8720 ha         1 E7D       0.180000
     49 H20         -6.2400     2.3110    -1.5870 ha         1 E7D       0.144000
     50 H21         -7.6130     1.8650     0.4250 ha         1 E7D       0.134000
     51 H22         -6.9410     0.2420     2.1000 ha         1 E7D       0.139000
     52 H23         -4.8560    -2.2820     3.6850 h1         1 E7D       0.044367
     53 H24         -5.5020    -0.6320     3.7590 h1         1 E7D       0.044367
     54 H25         -6.3990    -1.9030     2.8970 h1         1 E7D       0.044367
     55 H26          4.4160    -1.9860    -0.3700 hc         1 E7D       0.036700
     56 H27          4.6780     0.7100     1.0550 hc         1 E7D       0.060700
     57 H28          1.2080     3.7990     1.5250 h2         1 E7D       0.050700
     58 H29          1.3420     2.5780     3.3400 ho         1 E7D       0.406000
@<TRIPOS>BOND
     1     1     2 1   
     2     1    30 1   
     3     1    31 1   
     4     1    32 1   
     5     2     3 1   
     6     2    33 1   
     7     2    34 1   
     8     3     4 1   
     9     3    35 1   
    10     3    36 1   
    11     4     5 1   
    12     4    37 1   
    13     4    55 1   
    14     5     6 1   
    15     5    38 1   
    16     5    56 1   
    17     6     7 1   
    18     6    12 1   
    19     6    39 1   
    20     7     8 1   
    21     7    40 1   
    22     7    41 1   
    23     8     9 1   
    24     8    10 1   
    25     9    42 1   
    26    10    11 1   
    27    10    43 1   
    28    10    57 1   
    29    11    58 1   
    30    12    13 2   
    31    12    14 1   
    32    14    15 1   
    33    14    44 1   
    34    15    16 1   
    35    15    45 1   
    36    15    46 1   
    37    16    17 1   
    38    16    47 1   
    39    17    18 2   
    40    17    19 1   
    41    19    20 2   
    42    19    29 1   
    43    20    21 1   
    44    20    48 1   
    45    21    22 ar  
    46    21    28 ar  
    47    22    23 ar  
    48    22    49 1   
    49    23    24 ar  
    50    23    50 1   
    51    24    25 ar  
    52    24    51 1   
    53    25    26 1   
    54    25    28 ar  
    55    26    27 1   
    56    27    52 1   
    57    27    53 1   
    58    27    54 1   
    59    28    29 1   
@<TRIPOS>SUBSTRUCTURE
     1 E7D         1 TEMP              0 ****  ****    0 ROOT
