@<TRIPOS>MOLECULE
E7E
   39    41     1     0     0
SMALL
No Charge or Current Charge


@<TRIPOS>ATOM
      1 C1          -0.9000     2.6140    -0.0090 ca         1 E7E      -0.119000
      2 C2          -2.0950     3.3670    -0.0850 ca         1 E7E      -0.093000
      3 C3          -3.3470     2.7240    -0.1270 ca         1 E7E      -0.111000
      4 C16          2.9080     0.7150     0.2090 ca         1 E7E      -0.021000
      5 C17          3.3590    -0.6160     0.0530 ca         1 E7E      -0.109000
      6 C18          5.6650     0.1130     0.3250 ca         1 E7E      -0.140000
      7 C19          5.2270     1.4380     0.4740 ca         1 E7E      -0.084000
      8 C20          4.7340    -0.9210     0.1130 ca         1 E7E      -0.061300
      9 C21          3.8560     1.7350     0.4140 ca         1 E7E      -0.170000
     10 C22          5.2070    -2.3620    -0.0490 c3         1 E7E       0.196100
     11 C4          -0.9220     1.1890     0.0280 ca         1 E7E      -0.090600
     12 C5          -2.2060     0.5930    -0.0170 ca         1 E7E      -0.076800
     13 C6          -3.3610     1.3270    -0.0900 ca         1 E7E      -0.045200
     14 N7          -4.4600     0.4830    -0.1200 na         1 E7E      -0.216700
     15 C8          -4.0400    -0.8670    -0.0640 cc         1 E7E      -0.155300
     16 C9          -2.6530    -0.7850    -0.0010 cd         1 E7E      -0.136200
     17 C10         -4.8000    -2.1430    -0.0660 c          1 E7E       0.635300
     18 N11         -6.1440    -2.0260    -0.1320 nt         1 E7E      -0.609000
     19 O12         -4.2850    -3.2470    -0.0120 o          1 E7E      -0.577100
     20 O14          0.3400    -0.8620     0.1420 o          1 E7E      -0.564100
     21 N15          1.5380     1.0980     0.1560 ns         1 E7E      -0.144000
     22 N23          5.2920    -2.7520    -1.4690 n8         1 E7E      -0.994200
     23 H1           0.0380     3.1630     0.0200 ha         1 E7E       0.115000
     24 H2          -2.0480     4.4540    -0.1120 ha         1 E7E       0.116000
     25 H3          -4.2690     3.2970    -0.1850 ha         1 E7E       0.117000
     26 H4           2.6620    -1.4290    -0.1260 ha         1 E7E       0.166000
     27 H5           6.7290    -0.1100     0.3730 ha         1 E7E       0.110000
     28 H6           5.9500     2.2350     0.6360 ha         1 E7E       0.111000
     29 H7           3.5300     2.7660     0.5310 ha         1 E7E       0.107000
     30 H8           6.1980    -2.4810     0.4110 h1         1 E7E       0.034200
     31 H9           4.5110    -3.0400     0.4640 h1         1 E7E       0.034200
     32 H10         -5.4230     0.8010    -0.1730 hn         1 E7E       0.349000
     33 H11         -2.0070    -1.6580     0.0530 ha         1 E7E       0.241000
     34 H12         -6.5740    -1.1170    -0.1770 hn         1 E7E       0.311500
     35 H13         -6.7080    -2.8620    -0.1370 hn         1 E7E       0.311500
     36 H14          1.4010     2.0990     0.1480 hn         1 E7E       0.151000
     37 H15          5.9850    -2.1520    -1.9310 hn         1 E7E       0.397000
     38 H16          5.7020    -3.6910    -1.5310 hn         1 E7E       0.397000
     39 C13          0.3570     0.3630     0.1100 c          1 E7E       0.618700
@<TRIPOS>BOND
     1     1     2 ar  
     2     1    11 ar  
     3     1    23 1   
     4     2     3 ar  
     5     2    24 1   
     6     3    13 ar  
     7     3    25 1   
     8     4     5 ar  
     9     4     9 ar  
    10     4    21 1   
    11     5     8 ar  
    12     5    26 1   
    13     6     7 ar  
    14     6     8 ar  
    15     6    27 1   
    16     7     9 ar  
    17     7    28 1   
    18     8    10 1   
    19     9    29 1   
    20    10    22 1   
    21    10    30 1   
    22    10    31 1   
    23    11    12 ar  
    24    11    39 1   
    25    12    13 ar  
    26    12    16 1   
    27    13    14 1   
    28    14    15 1   
    29    14    32 1   
    30    15    16 2   
    31    15    17 1   
    32    16    33 1   
    33    17    18 1   
    34    17    19 2   
    35    18    34 1   
    36    18    35 1   
    37    20    39 2   
    38    21    36 1   
    39    21    39 1   
    40    22    37 1   
    41    22    38 1   
@<TRIPOS>SUBSTRUCTURE
     1 E7E         1 TEMP              0 ****  ****    0 ROOT
