@<TRIPOS>MOLECULE
E7E
   39    41     1     0     0
SMALL
abcg2


@<TRIPOS>ATOM
      1 C1          -0.8210     2.5520    -0.5820 ca         1 E7E      -0.119000
      2 C2          -2.0230     3.2720    -0.6610 ca         1 E7E      -0.093000
      3 C3          -3.2420     2.6530    -0.4950 ca         1 E7E      -0.111000
      4 C16          2.8410     0.6610     0.4090 ca         1 E7E      -0.021000
      5 C17          3.3620    -0.5270    -0.1030 ca         1 E7E      -0.109000
      6 C18          5.5240     0.0210     0.8070 ca         1 E7E      -0.140000
      7 C19          5.0050     1.2030     1.3170 ca         1 E7E      -0.084000
      8 C20          4.7020    -0.8490     0.1000 ca         1 E7E      -0.061300
      9 C21          3.6750     1.5260     1.1220 ca         1 E7E      -0.170000
     10 C22          5.2600    -2.1560    -0.4120 c3         1 E7E       0.196100
     11 C4          -0.8070     1.1900    -0.3370 ca         1 E7E      -0.090600
     12 C5          -2.0400     0.5270    -0.1760 ca         1 E7E      -0.076800
     13 C6          -3.2340     1.2800    -0.2540 ca         1 E7E      -0.045200
     14 N7          -4.2760     0.4300    -0.0500 na         1 E7E      -0.216700
     15 C8          -3.7900    -0.8300     0.1830 cc         1 E7E      -0.155300
     16 C9          -2.4230    -0.8130     0.1110 cd         1 E7E      -0.136200
     17 C10         -4.6350    -2.0140     0.4520 c          1 E7E       0.635300
     18 N11         -5.9330    -1.9040     0.1230 nt         1 E7E      -0.609000
     19 O12         -4.1490    -3.0140     0.9590 o          1 E7E      -0.577100
     20 O14          0.5090    -0.7450    -0.6880 o          1 E7E      -0.564100
     21 N15          1.5120     1.0730     0.2490 ns         1 E7E      -0.144000
     22 N23          4.5850    -2.6270    -1.6070 n8         1 E7E      -0.994200
     23 H1           0.1060     3.0880    -0.7460 ha         1 E7E       0.115000
     24 H2          -1.9860     4.3350    -0.8610 ha         1 E7E       0.116000
     25 H3          -4.1680     3.2100    -0.5550 ha         1 E7E       0.117000
     26 H4           2.7480    -1.2080    -0.6670 ha         1 E7E       0.166000
     27 H5           6.5680    -0.2230     0.9590 ha         1 E7E       0.110000
     28 H6           5.6420     1.8840     1.8670 ha         1 E7E       0.111000
     29 H7           3.2810     2.4540     1.5180 ha         1 E7E       0.107000
     30 H8           6.3460    -2.0440    -0.5300 h1         1 E7E       0.034200
     31 H9           5.1250    -2.9130     0.3670 h1         1 E7E       0.034200
     32 H10         -5.2320     0.7270     0.0640 hn         1 E7E       0.349000
     33 H11         -1.7800    -1.6690     0.2260 ha         1 E7E       0.241000
     34 H12         -6.2790    -1.1770    -0.4800 hn         1 E7E       0.311500
     35 H13         -6.5430    -2.6930     0.2630 hn         1 E7E       0.311500
     36 H14          1.3040     1.9720     0.6580 hn         1 E7E       0.151000
     37 H15          4.8440    -2.0460    -2.3950 hn         1 E7E       0.397000
     38 H16          4.9080    -3.5590    -1.8260 hn         1 E7E       0.397000
     39 C13          0.4590     0.4050    -0.2850 c          1 E7E       0.618700
@<TRIPOS>BOND
     1     1     2 ar  
     2     1    11 ar  
     3     1    23 1   
     4     2     3 ar  
     5     2    24 1   
     6     3    13 ar  
     7     3    25 1   
     8     4     5 ar  
     9     4     9 ar  
    10     4    21 1   
    11     5     8 ar  
    12     5    26 1   
    13     6     7 ar  
    14     6     8 ar  
    15     6    27 1   
    16     7     9 ar  
    17     7    28 1   
    18     8    10 1   
    19     9    29 1   
    20    10    22 1   
    21    10    30 1   
    22    10    31 1   
    23    11    12 ar  
    24    11    39 1   
    25    12    13 ar  
    26    12    16 1   
    27    13    14 1   
    28    14    15 1   
    29    14    32 1   
    30    15    16 2   
    31    15    17 1   
    32    16    33 1   
    33    17    18 1   
    34    17    19 2   
    35    18    34 1   
    36    18    35 1   
    37    20    39 2   
    38    21    36 1   
    39    21    39 1   
    40    22    37 1   
    41    22    38 1   
@<TRIPOS>SUBSTRUCTURE
     1 E7E         1 TEMP              0 ****  ****    0 ROOT
