@<TRIPOS>MOLECULE
E7F
   55    57     1     0     0
SMALL
bcc


@<TRIPOS>ATOM
      1 C01         -1.6120    -0.7560    -1.6730 ca         1 E7F       0.276100
      2 C02         -1.7900    -0.0160    -0.4990 ca         1 E7F      -0.242300
      3 C03         -0.6470     0.4890     0.1240 ca         1 E7F       0.309100
      4 C04          0.6780     0.2550    -0.3730 ca         1 E7F      -0.428600
      5 C05          0.7800    -0.4740    -1.5850 ca         1 E7F       0.287100
      6 C06         -0.3470    -0.9720    -2.2100 ca         1 E7F      -0.351000
      7 C07          1.8040     0.7300     0.4300 c          1 E7F       0.610700
      8 C08          3.2390     0.3800     0.1090 c3         1 E7F      -0.177400
      9 C09          4.2320     0.7740     1.2030 c3         1 E7F      -0.012100
     10 C10          5.6240     0.3380     0.8360 ca         1 E7F      -0.131300
     11 C11          6.4560     1.1460     0.0640 ca         1 E7F      -0.085500
     12 C12          7.7260     0.7360    -0.3080 ca         1 E7F      -0.192000
     13 C13          8.1980    -0.5120     0.0930 ca         1 E7F       0.141100
     14 C14          7.3810    -1.3330     0.8650 ca         1 E7F      -0.192000
     15 C15          6.1120    -0.9050     1.2260 ca         1 E7F      -0.085500
     16 C16         -5.6160    -2.2430     1.1650 c3         1 E7F       0.148400
     17 C17         -6.0040     0.0450     0.1830 c6         1 E7F       0.120100
     18 C18         -5.3430     1.3920    -0.0900 c6         1 E7F       0.113100
     19 C19         -4.0010     1.1890    -0.7740 c6         1 E7F       0.086100
     20 C20         -3.1540     0.2370     0.0830 c6         1 E7F       0.191400
     21 C21         -5.0420    -0.8560     0.9610 c6         1 E7F       0.147100
     22 O01          1.9240    -0.7480    -2.2240 oh         1 E7F      -0.497100
     23 O02         -2.6940    -1.2400    -2.2820 oh         1 E7F      -0.462100
     24 O03         -0.8260     1.1980     1.2270 oh         1 E7F      -0.511100
     25 O04          1.6040     1.4170     1.4370 o          1 E7F      -0.578100
     26 O05          9.4420    -0.8710    -0.2880 oh         1 E7F      -0.493100
     27 O06         -3.8270    -0.9910     0.2620 os         1 E7F      -0.377600
     28 O07         -6.2380     2.1490    -0.8720 oh         1 E7F      -0.608800
     29 O08         -3.3840     2.4490    -0.8900 oh         1 E7F      -0.598800
     30 O10         -4.7290    -2.9900     1.9640 oh         1 E7F      -0.586800
     31 H1          -0.2320    -1.5230    -3.1360 ha         1 E7F       0.154000
     32 H2           3.3230    -0.6960    -0.0720 hc         1 E7F       0.067200
     33 H3           3.5370     0.8970    -0.8130 hc         1 E7F       0.067200
     34 H4           4.2050     1.8540     1.3550 hc         1 E7F       0.064200
     35 H5           3.9380     0.3120     2.1470 hc         1 E7F       0.064200
     36 H6           6.1090     2.1220    -0.2560 ha         1 E7F       0.131500
     37 H7           8.3560     1.3810    -0.9070 ha         1 E7F       0.140500
     38 H8           7.7330    -2.3060     1.1920 ha         1 E7F       0.140500
     39 H9           5.4930    -1.5580     1.8310 ha         1 E7F       0.131500
     40 H10         -6.6000    -2.1460     1.6350 h1         1 E7F       0.033700
     41 H11         -5.7730    -2.7110     0.1830 h1         1 E7F       0.033700
     42 H12         -6.2210    -0.4360    -0.7850 h1         1 E7F       0.052700
     43 H13         -5.1640     1.8830     0.8810 h1         1 E7F       0.054700
     44 H14         -4.1790     0.7420    -1.7610 h1         1 E7F       0.058700
     45 H15         -3.0290     0.7230     1.0600 h1         1 E7F       0.068700
     46 H16         -4.8610    -0.3960     1.9470 h1         1 E7F       0.059700
     47 H17          2.6690    -0.2260    -1.9130 ho         1 E7F       0.440000
     48 H18         -2.4480    -1.6930    -3.0980 ho         1 E7F       0.434000
     49 H19          0.0780     1.4660     1.5540 ho         1 E7F       0.491000
     50 H20          9.6520    -1.7510     0.0430 ho         1 E7F       0.427000
     51 H21         -5.9070     3.0510    -0.9270 ho         1 E7F       0.424000
     52 H22         -2.6380     2.3700    -1.4930 ho         1 E7F       0.413000
     53 H24         -5.1450    -3.8340     2.1580 ho         1 E7F       0.401000
     54 O09         -7.1770     0.1950     0.9450 oh         1 E7F      -0.597800
     55 H23         -7.7650     0.7950     0.4740 ho         1 E7F       0.424000
@<TRIPOS>BOND
     1     1     2 ar  
     2     1     6 ar  
     3     1    23 1   
     4     2     3 ar  
     5     2    20 1   
     6     3     4 ar  
     7     3    24 1   
     8     4     5 ar  
     9     4     7 1   
    10     5     6 ar  
    11     5    22 1   
    12     6    31 1   
    13     7     8 1   
    14     7    25 2   
    15     8     9 1   
    16     8    32 1   
    17     8    33 1   
    18     9    10 1   
    19     9    34 1   
    20     9    35 1   
    21    10    11 ar  
    22    10    15 ar  
    23    11    12 ar  
    24    11    36 1   
    25    12    13 ar  
    26    12    37 1   
    27    13    14 ar  
    28    13    26 1   
    29    14    15 ar  
    30    14    38 1   
    31    15    39 1   
    32    16    21 1   
    33    16    30 1   
    34    16    40 1   
    35    16    41 1   
    36    17    18 1   
    37    17    21 1   
    38    17    42 1   
    39    17    54 1   
    40    18    19 1   
    41    18    28 1   
    42    18    43 1   
    43    19    20 1   
    44    19    29 1   
    45    19    44 1   
    46    20    27 1   
    47    20    45 1   
    48    21    27 1   
    49    21    46 1   
    50    22    47 1   
    51    23    48 1   
    52    24    49 1   
    53    26    50 1   
    54    28    51 1   
    55    29    52 1   
    56    30    53 1   
    57    54    55 1   
@<TRIPOS>SUBSTRUCTURE
     1 E7F         1 TEMP              0 ****  ****    0 ROOT
