@<TRIPOS>MOLECULE
E7F
   55    57     1     0     0
SMALL
No Charge or Current Charge


@<TRIPOS>ATOM
      1 C01         -1.5230    -0.4200    -2.0400 ca         1 E7F       0.276100
      2 C02         -1.5750     0.3900    -0.8870 ca         1 E7F      -0.242300
      3 C03         -0.4370     1.1540    -0.5570 ca         1 E7F       0.309100
      4 C04          0.7330     1.1010    -1.3360 ca         1 E7F      -0.428600
      5 C05          0.7330     0.3250    -2.5040 ca         1 E7F       0.287100
      6 C06         -0.3820    -0.4350    -2.8420 ca         1 E7F      -0.333000
      7 C07          1.9390     1.8580    -0.8760 c          1 E7F       0.610700
      8 C08          3.2950     1.1520    -0.7490 c3         1 E7F      -0.177400
      9 C09          3.5600     0.7310     0.7130 c3         1 E7F      -0.012100
     10 C10          4.8940     0.0110     0.8640 ca         1 E7F      -0.131300
     11 C11          6.0680     0.7410     1.1350 ca         1 E7F      -0.067500
     12 C12          7.2980     0.0740     1.2680 ca         1 E7F      -0.174000
     13 C13          7.3630    -1.3200     1.1310 ca         1 E7F       0.141100
     14 C14          6.1970    -2.0530     0.8580 ca         1 E7F      -0.174000
     15 C15          4.9640    -1.3890     0.7240 ca         1 E7F      -0.067500
     16 C16         -4.3280    -2.4500     1.9420 c3         1 E7F       0.171600
     17 C17         -5.5250    -0.4460     0.8010 c6         1 E7F       0.143300
     18 C18         -5.3000     1.0000     0.2730 c6         1 E7F       0.136300
     19 C19         -4.0990     1.0340    -0.7130 c6         1 E7F       0.109300
     20 C20         -2.8370     0.4430     0.0060 c6         1 E7F       0.214600
     21 C21         -4.2050    -0.9680     1.4520 c6         1 E7F       0.170300
     22 O01          1.7800     0.3210    -3.3690 oh         1 E7F      -0.536100
     23 O02         -2.5820    -1.1840    -2.4230 oh         1 E7F      -0.501100
     24 O03         -0.4590     1.9770     0.5240 oh         1 E7F      -0.550100
     25 O04          1.8100     3.0260    -0.5360 o          1 E7F      -0.578100
     26 O05          8.5610    -1.9560     1.2620 oh         1 E7F      -0.532100
     27 O06         -3.1170    -0.8910     0.4900 os         1 E7F      -0.424000
     28 O07         -6.4850     1.5020    -0.3690 oh         1 E7F      -0.671000
     29 O08         -3.8800     2.3840    -1.1800 oh         1 E7F      -0.721000
     30 O10         -3.1080    -2.9700     2.5110 oh         1 E7F      -0.709000
     31 H1          -0.3560    -1.0320    -3.7490 ha         1 E7F       0.136000
     32 H2           3.3150     0.2370    -1.3480 hc         1 E7F       0.067200
     33 H3           4.0910     1.8360    -1.0670 hc         1 E7F       0.067200
     34 H4           3.5370     1.6190     1.3580 hc         1 E7F       0.064200
     35 H5           2.7420     0.0850     1.0580 hc         1 E7F       0.064200
     36 H6           6.0280     1.8230     1.2410 ha         1 E7F       0.113500
     37 H7           8.2020     0.6410     1.4780 ha         1 E7F       0.122500
     38 H8           6.2370    -3.1340     0.7480 ha         1 E7F       0.122500
     39 H9           4.0650    -1.9630     0.5100 ha         1 E7F       0.113500
     40 H10         -5.1340    -2.5000     2.6860 h1         1 E7F       0.033700
     41 H11         -4.6370    -3.0670     1.0870 h1         1 E7F       0.033700
     42 H12         -5.7580    -1.0930    -0.0590 h1         1 E7F       0.052700
     43 H13         -5.0470     1.6430     1.1310 h1         1 E7F       0.054700
     44 H14         -4.3500     0.3870    -1.5650 h1         1 E7F       0.058700
     45 H15         -2.6420     1.0690     0.8890 h1         1 E7F       0.068700
     46 H16         -3.9540    -0.3410     2.3200 h1         1 E7F       0.059700
     47 H17          2.2530     1.1730    -3.2900 ho         1 E7F       0.479000
     48 H18         -2.3120    -1.6920    -3.2140 ho         1 E7F       0.473000
     49 H19          0.2870     2.6120     0.3990 ho         1 E7F       0.530000
     50 H20          8.4170    -2.9180     1.1360 ho         1 E7F       0.466000
     51 H21         -6.1630     2.2450    -0.9320 ho         1 E7F       0.463000
     52 H22         -3.0820     2.3620    -1.7590 ho         1 E7F       0.512000
     53 H24         -3.2720    -3.9180     2.7250 ho         1 E7F       0.500000
     54 O09         -6.6320    -0.4530     1.7240 oh         1 E7F      -0.720000
     55 H23         -7.2870     0.1740     1.3300 ho         1 E7F       0.523000
@<TRIPOS>BOND
     1     1     2 ar  
     2     1     6 ar  
     3     1    23 1   
     4     2     3 ar  
     5     2    20 1   
     6     3     4 ar  
     7     3    24 1   
     8     4     5 ar  
     9     4     7 1   
    10     5     6 ar  
    11     5    22 1   
    12     6    31 1   
    13     7     8 1   
    14     7    25 2   
    15     8     9 1   
    16     8    32 1   
    17     8    33 1   
    18     9    10 1   
    19     9    34 1   
    20     9    35 1   
    21    10    11 ar  
    22    10    15 ar  
    23    11    12 ar  
    24    11    36 1   
    25    12    13 ar  
    26    12    37 1   
    27    13    14 ar  
    28    13    26 1   
    29    14    15 ar  
    30    14    38 1   
    31    15    39 1   
    32    16    21 1   
    33    16    30 1   
    34    16    40 1   
    35    16    41 1   
    36    17    18 1   
    37    17    21 1   
    38    17    42 1   
    39    17    54 1   
    40    18    19 1   
    41    18    28 1   
    42    18    43 1   
    43    19    20 1   
    44    19    29 1   
    45    19    44 1   
    46    20    27 1   
    47    20    45 1   
    48    21    27 1   
    49    21    46 1   
    50    22    47 1   
    51    23    48 1   
    52    24    49 1   
    53    26    50 1   
    54    28    51 1   
    55    29    52 1   
    56    30    53 1   
    57    54    55 1   
@<TRIPOS>SUBSTRUCTURE
     1 E7F         1 TEMP              0 ****  ****    0 ROOT
