@<TRIPOS>MOLECULE
E7H
   50    54     1     0     0
SMALL
abcg2


@<TRIPOS>ATOM
      1 C1           3.0330     1.9660    -0.6220 c6         1 E7H      -0.055700
      2 C2           3.5340    -0.9110    -0.6340 c6         1 E7H      -0.047400
      3 C3           2.2570    -0.3450    -0.0040 c6         1 E7H      -0.125000
      4 C11          1.1230    -1.3580    -0.1380 c          1 E7H       0.613100
      5 C15         -1.4980    -2.9400     0.2870 ca         1 E7H      -0.158000
      6 C16         -2.7910    -3.4880     0.2070 ca         1 E7H      -0.055000
      7 C17         -3.9230    -2.7070     0.1260 ca         1 E7H      -0.161000
      8 C18         -1.3110    -1.5700     0.2810 ca         1 E7H       0.034000
      9 C19         -2.4480    -0.7420     0.1930 ca         1 E7H      -0.159800
     10 C20         -3.7290    -1.3250     0.1170 ca         1 E7H      -0.011200
     11 C22         -3.9770     0.8920     0.0430 cc         1 E7H      -0.157300
     12 C23         -2.6300     0.6680     0.1460 cd         1 E7H      -0.158200
     13 C24         -4.6240     2.2150    -0.0740 c          1 E7H       0.638300
     14 C4           2.5350    -0.0280     1.4780 c6         1 E7H      -0.064900
     15 C5           3.6730     0.9900     1.5830 c6         1 E7H      -0.055700
     16 C6           4.9360     0.4100     0.9460 c6         1 E7H      -0.083900
     17 C7           4.6900     0.0900    -0.5340 c6         1 E7H       0.168200
     18 C8           1.8870     0.9610    -0.7380 c6         1 E7H      -0.064900
     19 C9           3.2850     2.2760     0.8540 c6         1 E7H      -0.072400
     20 C10          4.2940     1.3810    -1.2540 c6         1 E7H      -0.083900
     21 N12         -0.0660    -0.9410     0.3820 ns         1 E7H      -0.152000
     22 O13          1.2570    -2.4410    -0.6750 o          1 E7H      -0.573100
     23 N14          5.8510    -0.4900    -1.1970 n8         1 E7H      -0.984200
     24 N21         -4.6340    -0.3130     0.0200 na         1 E7H      -0.215700
     25 N25         -5.9080     2.2270    -0.4660 nt         1 E7H      -0.608000
     26 O26         -3.9910     3.2310     0.1790 o          1 E7H      -0.591100
     27 H1           2.7510     2.8820    -1.1490 hc         1 E7H       0.054700
     28 H2           3.8200    -1.8400    -0.1300 hc         1 E7H       0.063200
     29 H3           3.3650    -1.1560    -1.6860 hc         1 E7H       0.063200
     30 H5          -2.8920    -4.5650     0.2150 ha         1 E7H       0.115000
     31 H6          -4.9120    -3.1430     0.0640 ha         1 E7H       0.117000
     32 H7          -1.8760     1.4390     0.1540 ha         1 E7H       0.215000
     33 H8           1.6430     0.3700     1.9730 hc         1 E7H       0.046200
     34 H9           2.8050    -0.9480     2.0070 hc         1 E7H       0.046200
     35 H10          3.8580     1.2040     2.6390 hc         1 E7H       0.054700
     36 H11          5.7640     1.1230     1.0340 hc         1 E7H       0.044950
     37 H12          5.2430    -0.5010     1.4720 hc         1 E7H       0.044950
     38 H13          0.9820     1.4130    -0.3210 hc         1 E7H       0.046200
     39 H14          1.6720     0.7470    -1.7890 hc         1 E7H       0.046200
     40 H15          4.0820     3.0190     0.9530 hc         1 E7H       0.042700
     41 H16          2.3890     2.7140     1.3060 hc         1 E7H       0.042700
     42 H17          4.1310     1.1750    -2.3170 hc         1 E7H       0.044950
     43 H18          5.1150     2.1040    -1.1910 hc         1 E7H       0.044950
     44 H19         -0.0890    -0.0110     0.7680 hn         1 E7H       0.156000
     45 H20          6.6290     0.1580    -1.1330 hn         1 E7H       0.392500
     46 H21          6.1470    -1.3150    -0.6840 hn         1 E7H       0.392500
     47 H23         -5.6310    -0.4490     0.0470 hn         1 E7H       0.347000
     48 H24         -6.3850     1.4150    -0.8190 hn         1 E7H       0.312500
     49 H25         -6.3750     3.1100    -0.5950 hn         1 E7H       0.312500
     50 H4          -0.6560    -3.6090     0.3650 ha         1 E7H       0.140000
@<TRIPOS>BOND
     1     1    18 1   
     2     1    19 1   
     3     1    20 1   
     4     1    27 1   
     5     2     3 1   
     6     2    17 1   
     7     2    28 1   
     8     2    29 1   
     9     3     4 1   
    10     3    14 1   
    11     3    18 1   
    12     4    21 1   
    13     4    22 2   
    14     5     6 ar  
    15     5     8 ar  
    16     5    50 1   
    17     6     7 ar  
    18     6    30 1   
    19     7    10 ar  
    20     7    31 1   
    21     8     9 ar  
    22     8    21 1   
    23     9    10 ar  
    24     9    12 1   
    25    10    24 1   
    26    11    12 2   
    27    11    13 1   
    28    11    24 1   
    29    12    32 1   
    30    13    25 1   
    31    13    26 2   
    32    14    15 1   
    33    14    33 1   
    34    14    34 1   
    35    15    16 1   
    36    15    19 1   
    37    15    35 1   
    38    16    17 1   
    39    16    36 1   
    40    16    37 1   
    41    17    20 1   
    42    17    23 1   
    43    18    38 1   
    44    18    39 1   
    45    19    40 1   
    46    19    41 1   
    47    20    42 1   
    48    20    43 1   
    49    21    44 1   
    50    23    45 1   
    51    23    46 1   
    52    24    47 1   
    53    25    48 1   
    54    25    49 1   
@<TRIPOS>SUBSTRUCTURE
     1 E7H         1 TEMP              0 ****  ****    0 ROOT
