@<TRIPOS>MOLECULE
E7H
   50    54     1     0     0
SMALL
No Charge or Current Charge


@<TRIPOS>ATOM
      1 C1           2.9670     2.0590     0.0120 c6         1 E7H      -0.055700
      2 C2           3.3150    -0.7990    -0.7340 c6         1 E7H      -0.047400
      3 C3           2.2950    -0.4190     0.3910 c6         1 E7H      -0.125000
      4 C11          1.1330    -1.4620     0.4670 c          1 E7H       0.613100
      5 C15         -1.6340    -3.0040     0.4650 ca         1 E7H      -0.158000
      6 C16         -2.9400    -3.5520     0.4320 ca         1 E7H      -0.055000
      7 C17         -4.0560    -2.7310     0.1680 ca         1 E7H      -0.161000
      8 C18         -1.4230    -1.6210     0.2330 ca         1 E7H       0.034000
      9 C19         -2.5640    -0.8450    -0.0260 ca         1 E7H      -0.159800
     10 C20         -3.8250    -1.3710    -0.0580 ca         1 E7H      -0.011200
     11 C22         -4.0740     0.8720    -0.4950 cc         1 E7H      -0.157300
     12 C23         -2.7310     0.5630    -0.3010 cd         1 E7H      -0.158200
     13 C24         -4.5810     2.2360    -0.7970 c          1 E7H       0.638300
     14 C4           3.0550    -0.3080     1.7780 c6         1 E7H      -0.064900
     15 C5           4.2660     0.7020     1.7280 c6         1 E7H      -0.055700
     16 C6           5.2430     0.2400     0.6050 c6         1 E7H      -0.083900
     17 C7           4.5120     0.2070    -0.7790 c6         1 E7H       0.168200
     18 C8           1.7870     1.0400     0.0700 c6         1 E7H      -0.064900
     19 C9           3.7070     2.1090     1.3820 c6         1 E7H      -0.072400
     20 C10          3.9650     1.6270    -1.0970 c6         1 E7H      -0.083900
     21 N12         -0.1540    -0.9840     0.2450 ns         1 E7H      -0.152000
     22 O13          1.3780    -2.6380     0.7100 o          1 E7H      -0.573100
     23 N14          5.4620    -0.2000    -1.8270 n8         1 E7H      -0.984200
     24 N21         -4.7400    -0.3690    -0.3350 na         1 E7H      -0.215700
     25 N25         -5.9180     2.3450    -0.9520 nt         1 E7H      -0.608000
     26 O26         -3.8730     3.2240    -0.9050 o          1 E7H      -0.591100
     27 H1           2.5740     3.0580    -0.2230 hc         1 E7H       0.054700
     28 H2           3.6980    -1.8140    -0.5590 hc         1 E7H       0.063200
     29 H3           2.8080    -0.8290    -1.7090 hc         1 E7H       0.063200
     30 H5          -3.0840    -4.6160     0.6130 ha         1 E7H       0.115000
     31 H6          -5.0620    -3.1440     0.1410 ha         1 E7H       0.117000
     32 H7          -1.9280     1.2940    -0.3530 ha         1 E7H       0.215000
     33 H8           2.3530    -0.0060     2.5680 hc         1 E7H       0.046200
     34 H9           3.4280    -1.2990     2.0740 hc         1 E7H       0.046200
     35 H10          4.7830     0.7250     2.6980 hc         1 E7H       0.054700
     36 H11          6.1050     0.9200     0.5660 hc         1 E7H       0.044950
     37 H12          5.6430    -0.7540     0.8480 hc         1 E7H       0.044950
     38 H13          1.0670     1.3730     0.8320 hc         1 E7H       0.046200
     39 H14          1.2510     1.0590    -0.8900 hc         1 E7H       0.046200
     40 H15          4.5240     2.8430     1.3470 hc         1 E7H       0.042700
     41 H16          3.0200     2.4480     2.1710 hc         1 E7H       0.042700
     42 H17          3.4620     1.6360    -2.0750 hc         1 E7H       0.044950
     43 H18          4.7870     2.3530    -1.1620 hc         1 E7H       0.044950
     44 H19         -0.2030     0.0070     0.0560 hn         1 E7H       0.156000
     45 H20          5.5890     0.5860    -2.4730 hn         1 E7H       0.392500
     46 H21          6.3880    -0.3110    -1.4010 hn         1 E7H       0.392500
     47 H23         -5.7410    -0.5170    -0.4100 hn         1 E7H       0.347000
     48 H24         -6.5080     1.5330    -0.8640 hn         1 E7H       0.312500
     49 H25         -6.3150     3.2490    -1.1590 hn         1 E7H       0.312500
     50 H4          -0.8060    -3.6740     0.6720 ha         1 E7H       0.140000
@<TRIPOS>BOND
     1     1    18 1   
     2     1    19 1   
     3     1    20 1   
     4     1    27 1   
     5     2     3 1   
     6     2    17 1   
     7     2    28 1   
     8     2    29 1   
     9     3     4 1   
    10     3    14 1   
    11     3    18 1   
    12     4    21 1   
    13     4    22 2   
    14     5     6 ar  
    15     5     8 ar  
    16     5    50 1   
    17     6     7 ar  
    18     6    30 1   
    19     7    10 ar  
    20     7    31 1   
    21     8     9 ar  
    22     8    21 1   
    23     9    10 ar  
    24     9    12 1   
    25    10    24 1   
    26    11    12 2   
    27    11    13 1   
    28    11    24 1   
    29    12    32 1   
    30    13    25 1   
    31    13    26 2   
    32    14    15 1   
    33    14    33 1   
    34    14    34 1   
    35    15    16 1   
    36    15    19 1   
    37    15    35 1   
    38    16    17 1   
    39    16    36 1   
    40    16    37 1   
    41    17    20 1   
    42    17    23 1   
    43    18    38 1   
    44    18    39 1   
    45    19    40 1   
    46    19    41 1   
    47    20    42 1   
    48    20    43 1   
    49    21    44 1   
    50    23    45 1   
    51    23    46 1   
    52    24    47 1   
    53    25    48 1   
    54    25    49 1   
@<TRIPOS>SUBSTRUCTURE
     1 E7H         1 TEMP              0 ****  ****    0 ROOT
