@<TRIPOS>MOLECULE
E7I
   15    15     1     0     0
SMALL
abcg2


@<TRIPOS>ATOM
      1 C2         -17.0580    35.5840    42.5600 ca         1 E7I      -0.052000
      2 C4         -18.2800    37.4350    43.4870 ca         1 E7I      -0.073000
      3 C5         -18.6930    37.8030    42.2130 ca         1 E7I      -0.126500
      4 C6         -18.2890    37.0650    41.1140 ca         1 E7I      -0.052000
      5 O          -17.3600    35.5680    38.9460 o          1 E7I      -0.497100
      6 SE         -16.0750    33.5620    40.3240 sh         1 E7I      -0.523400
      7 C1         -17.4700    35.9460    41.2780 ca         1 E7I      -0.167600
      8 C3         -17.4630    36.3270    43.6580 ca         1 E7I      -0.126500
      9 H1         -16.4130    34.7320    42.7350 ha         1 E7I       0.133500
     10 H2         -18.5960    38.0130    44.3460 ha         1 E7I       0.118000
     11 H3         -19.3320    38.6660    42.0750 ha         1 E7I       0.121000
     12 H4         -18.6140    37.3570    40.1240 ha         1 E7I       0.133500
     13 H5         -15.9400    33.3320    38.8950 hs         1 E7I       0.286800
     14 H6         -17.1360    36.0380    44.6480 ha         1 E7I       0.121000
     15 C          -17.0780    35.2030    40.0550 c          1 E7I       0.704300
@<TRIPOS>BOND
     1     1     7 ar  
     2     1     8 ar  
     3     1     9 1   
     4     2     3 ar  
     5     2     8 ar  
     6     2    10 1   
     7     3     4 ar  
     8     3    11 1   
     9     4     7 ar  
    10     4    12 1   
    11     5    15 2   
    12     6    13 1   
    13     6    15 1   
    14     7    15 1   
    15     8    14 1   
@<TRIPOS>SUBSTRUCTURE
     1 E7I         1 TEMP              0 ****  ****    0 ROOT
