@<TRIPOS>MOLECULE
E7I
   15    15     1     0     0
SMALL
No Charge or Current Charge


@<TRIPOS>ATOM
      1 C2         -17.0620    35.5560    42.5650 ca         1 E7I      -0.052000
      2 C4         -18.2790    37.4480    43.5040 ca         1 E7I      -0.073000
      3 C5         -18.6870    37.8220    42.2140 ca         1 E7I      -0.126500
      4 C6         -18.2850    37.0660    41.0990 ca         1 E7I      -0.052000
      5 O          -17.3940    35.4350    38.8970 o          1 E7I      -0.497100
      6 SE         -16.0080    33.6790    40.2890 sh         1 E7I      -0.523400
      7 C1         -17.4670    35.9230    41.2570 ca         1 E7I      -0.167600
      8 C3         -17.4680    36.3160    43.6770 ca         1 E7I      -0.126500
      9 H1         -16.4340    34.6860    42.7400 ha         1 E7I       0.133500
     10 H2         -18.5910    38.0330    44.3660 ha         1 E7I       0.118000
     11 H3         -19.3160    38.6990    42.0770 ha         1 E7I       0.121000
     12 H4         -18.6140    37.3760    40.1080 ha         1 E7I       0.133500
     13 H5         -15.9880    33.4340    38.9570 hs         1 E7I       0.286800
     14 H6         -17.1510    36.0250    44.6760 ha         1 E7I       0.121000
     15 C          -17.0530    35.1330    40.0320 c          1 E7I       0.704300
@<TRIPOS>BOND
     1     1     7 ar  
     2     1     8 ar  
     3     1     9 1   
     4     2     3 ar  
     5     2     8 ar  
     6     2    10 1   
     7     3     4 ar  
     8     3    11 1   
     9     4     7 ar  
    10     4    12 1   
    11     5    15 2   
    12     6    13 1   
    13     6    15 1   
    14     7    15 1   
    15     8    14 1   
@<TRIPOS>SUBSTRUCTURE
     1 E7I         1 TEMP              0 ****  ****    0 ROOT
