@<TRIPOS>MOLECULE
E7J
   30    30     1     0     0
SMALL
abcg2


@<TRIPOS>ATOM
      1 C10        -42.8540    11.6470   -23.5840 c          1 E7J       0.612700
      2 C13        -43.3200    12.8120   -21.5640 c3         1 E7J       0.165600
      3 C15        -42.7810    11.0220   -19.8360 c3         1 E7J      -0.073400
      4 C01        -40.4420    11.0220   -23.9870 ca         1 E7J      -0.086500
      5 C02        -41.7710    11.0550   -24.4090 ca         1 E7J      -0.182600
      6 C03        -42.1020    10.5030   -25.6450 ca         1 E7J      -0.086500
      7 C04        -41.1230     9.9400   -26.4450 ca         1 E7J      -0.110000
      8 C05        -39.7930     9.9040   -26.0330 ca         1 E7J      -0.101600
      9 C06        -39.4710    10.4470   -24.7920 ca         1 E7J      -0.110000
     10 C07        -38.7140     9.2860   -26.9250 c          1 E7J       0.712600
     11 C14        -43.8640    11.7630   -20.6120 c3         1 E7J      -0.099400
     12 C16        -43.3290     9.9930   -18.8670 c3         1 E7J       0.159600
     13 O08        -39.0940     8.8490   -28.0260 o          1 E7J      -0.713000
     14 O09        -37.5570     9.2810   -26.4660 o          1 E7J      -0.713000
     15 O11        -44.0260    11.5780   -23.8680 o          1 E7J      -0.524000
     16 O12        -42.3890    12.2660   -22.5090 os         1 E7J      -0.446100
     17 O17        -44.1170    10.6400   -17.8910 oh         1 E7J      -0.667000
     18 H1         -42.7440    13.5570   -21.0160 h1         1 E7J       0.052200
     19 H2         -44.1300    13.3270   -22.0830 h1         1 E7J       0.052200
     20 H3         -42.1190    10.4930   -20.5260 hc         1 E7J       0.054200
     21 H4         -42.1520    11.7370   -19.2960 hc         1 E7J       0.054200
     22 H5         -40.1570    11.4370   -23.0300 ha         1 E7J       0.105500
     23 H6         -43.1300    10.5190   -25.9840 ha         1 E7J       0.105500
     24 H7         -41.3930     9.5220   -27.4060 ha         1 E7J       0.132000
     25 H8         -38.4450    10.4220   -24.4510 ha         1 E7J       0.132000
     26 H9         -44.5280    12.2880   -19.9210 hc         1 E7J       0.054200
     27 H10        -44.4910    11.0490   -21.1530 hc         1 E7J       0.054200
     28 H11        -43.9130     9.2500   -19.4260 h1         1 E7J       0.017700
     29 H12        -42.4890     9.4550   -18.4090 h1         1 E7J       0.017700
     30 H14        -44.4890     9.9700   -17.3110 ho         1 E7J       0.434000
@<TRIPOS>BOND
     1     1     5 1   
     2     1    15 2   
     3     1    16 1   
     4     2    11 1   
     5     2    16 1   
     6     2    18 1   
     7     2    19 1   
     8     3    11 1   
     9     3    12 1   
    10     3    20 1   
    11     3    21 1   
    12     4     5 ar  
    13     4     9 ar  
    14     4    22 1   
    15     5     6 ar  
    16     6     7 ar  
    17     6    23 1   
    18     7     8 ar  
    19     7    24 1   
    20     8     9 ar  
    21     8    10 1   
    22     9    25 1   
    23    10    13 1   
    24    10    14 1   
    25    11    26 1   
    26    11    27 1   
    27    12    17 1   
    28    12    28 1   
    29    12    29 1   
    30    17    30 1   
@<TRIPOS>SUBSTRUCTURE
     1 E7J         1 TEMP              0 ****  ****    0 ROOT
