@<TRIPOS>MOLECULE
E7J
   30    30     1     0     0
SMALL
No Charge or Current Charge


@<TRIPOS>ATOM
      1 C10        -42.8340    11.6860   -23.5390 c          1 E7J       0.612700
      2 C13        -43.2510    12.9470   -21.5010 c3         1 E7J       0.165600
      3 C15        -42.8060    11.0240   -19.8120 c3         1 E7J      -0.073400
      4 C01        -40.3930    11.1470   -24.0680 ca         1 E7J      -0.086500
      5 C02        -41.7620    11.0640   -24.4090 ca         1 E7J      -0.182600
      6 C03        -42.1200    10.3770   -25.5880 ca         1 E7J      -0.086500
      7 C04        -41.1390     9.7910   -26.4070 ca         1 E7J      -0.110000
      8 C05        -39.7690     9.8730   -26.0700 ca         1 E7J      -0.101600
      9 C06        -39.4120    10.5600   -24.8870 ca         1 E7J      -0.110000
     10 C07        -38.7050     9.2370   -26.9570 c          1 E7J       0.712600
     11 C14        -43.8590    11.8370   -20.6090 c3         1 E7J      -0.099400
     12 C16        -43.4100     9.9230   -18.9130 c3         1 E7J       0.159600
     13 O08        -39.0600     8.6520   -27.9710 o          1 E7J      -0.713000
     14 O09        -37.5310     9.3340   -26.6260 o          1 E7J      -0.713000
     15 O11        -44.0260    11.6280   -23.8160 o          1 E7J      -0.524000
     16 O12        -42.3370    12.3610   -22.4510 os         1 E7J      -0.446100
     17 O17        -44.1900    10.5060   -17.8630 oh         1 E7J      -0.667000
     18 H1         -42.7140    13.6560   -20.8580 h1         1 E7J       0.052200
     19 H2         -44.0490    13.5050   -22.0090 h1         1 E7J       0.052200
     20 H3         -42.1140    10.5450   -20.5150 hc         1 E7J       0.054200
     21 H4         -42.2060    11.7040   -19.1950 hc         1 E7J       0.054200
     22 H5         -40.0750    11.6650   -23.1660 ha         1 E7J       0.105500
     23 H6         -43.1660    10.2940   -25.8780 ha         1 E7J       0.105500
     24 H7         -41.4510     9.2690   -27.3090 ha         1 E7J       0.132000
     25 H8         -38.3670    10.6430   -24.5960 ha         1 E7J       0.132000
     26 H9         -44.5540    12.3120   -19.9060 hc         1 E7J       0.054200
     27 H10        -44.4610    11.1540   -21.2210 hc         1 E7J       0.054200
     28 H11        -44.0280     9.2520   -19.5240 h1         1 E7J       0.017700
     29 H12        -42.5920     9.3270   -18.4850 h1         1 E7J       0.017700
     30 H14        -44.5430     9.7630   -17.3240 ho         1 E7J       0.434000
@<TRIPOS>BOND
     1     1     5 1   
     2     1    15 2   
     3     1    16 1   
     4     2    11 1   
     5     2    16 1   
     6     2    18 1   
     7     2    19 1   
     8     3    11 1   
     9     3    12 1   
    10     3    20 1   
    11     3    21 1   
    12     4     5 ar  
    13     4     9 ar  
    14     4    22 1   
    15     5     6 ar  
    16     6     7 ar  
    17     6    23 1   
    18     7     8 ar  
    19     7    24 1   
    20     8     9 ar  
    21     8    10 1   
    22     9    25 1   
    23    10    13 1   
    24    10    14 1   
    25    11    26 1   
    26    11    27 1   
    27    12    17 1   
    28    12    28 1   
    29    12    29 1   
    30    17    30 1   
@<TRIPOS>SUBSTRUCTURE
     1 E7J         1 TEMP              0 ****  ****    0 ROOT
