@<TRIPOS>MOLECULE
E7K
   60    65     1     0     0
SMALL
abcg2


@<TRIPOS>ATOM
      1 N1          16.6690   -17.0730    40.2320 nc         1 E7K      -0.679000
      2 N3          18.7060   -17.3250    47.8830 nc         1 E7K      -0.719000
      3 C4          18.1940   -17.0050    42.1930 c3         1 E7K      -0.122400
      4 C5          15.7850   -18.4400    43.4030 ca         1 E7K       0.001800
      5 C6          15.4950   -19.7790    43.6390 ca         1 E7K      -0.107000
      6 C7          15.4090   -20.2370    44.9410 ca         1 E7K      -0.097000
      7 C8          15.6180   -19.3870    46.0260 ca         1 E7K      -0.071300
      8 C10         15.4470   -18.8030    48.4590 c6         1 E7K       0.198800
      9 C13         15.9760   -17.5780    44.4700 ca         1 E7K      -0.098000
     10 C15         19.8950   -17.6260    48.4880 cc         1 E7K       0.313900
     11 C17         20.9620   -18.9350    50.4270 c3         1 E7K       0.053200
     12 C20         20.6180   -18.6670    54.2130 ca         1 E7K      -0.111500
     13 C21         20.6540   -17.2910    54.3950 ca         1 E7K       0.019800
     14 C22         20.7880   -16.4500    53.2940 ca         1 E7K      -0.111500
     15 C24         21.0700   -15.5760    56.1360 cc         1 E7K      -0.161000
     16 C26         20.0110   -16.6510    57.7270 cd         1 E7K       0.243900
     17 C3          16.9240   -17.3280    41.4900 cd         1 E7K       0.425800
     18 C1          15.4120   -17.5560    39.9780 cc         1 E7K       0.253300
     19 C           14.7740   -17.4370    38.6380 c3         1 E7K      -0.107400
     20 N           15.8720   -17.9630    42.0760 na         1 E7K      -0.081300
     21 C2          14.9040   -18.1200    41.1080 cd         1 E7K      -0.222000
     22 C12         15.9080   -18.0450    45.7770 ca         1 E7K      -0.093300
     23 C11         16.0920   -17.0750    46.9180 c6         1 E7K       0.242100
     24 N2          16.4050   -17.7540    48.1580 nh         1 E7K      -0.730300
     25 C9          15.5500   -19.9240    47.4340 c6         1 E7K      -0.067100
     26 C14         17.7180   -17.9190    48.4770 cd         1 E7K       0.696300
     27 S           18.1980   -18.9210    49.8290 ss         1 E7K      -0.097400
     28 C16         19.8540   -18.4660    49.5460 cd         1 E7K      -0.241300
     29 C18         20.8620   -18.3700    51.8230 ca         1 E7K      -0.088300
     30 C23         20.8970   -16.9920    52.0260 ca         1 E7K      -0.088500
     31 C19         20.7160   -19.1930    52.9330 ca         1 E7K      -0.088500
     32 N4          20.5560   -16.7470    55.6910 na         1 E7K       0.224000
     33 N5          19.9110   -17.4090    56.6550 nc         1 E7K      -0.518800
     34 C25         20.7350   -15.4740    57.4610 cd         1 E7K      -0.227000
     35 H1          18.9450   -16.7310    41.4560 hc         1 E7K       0.056033
     36 H2          18.0840   -16.1690    42.8840 hc         1 E7K       0.056033
     37 H3          18.5690   -17.8550    42.7640 hc         1 E7K       0.056033
     38 H4          15.3470   -20.4590    42.8090 ha         1 E7K       0.130000
     39 H5          15.1820   -21.2810    45.1210 ha         1 E7K       0.118000
     40 H6          14.4530   -18.3520    48.4330 h1         1 E7K       0.067700
     41 H7          15.5860   -19.1780    49.4740 h1         1 E7K       0.067700
     42 H8          16.1740   -16.5270    44.2900 ha         1 E7K       0.130000
     43 H9          20.8090   -17.1910    48.1050 h4         1 E7K       0.037100
     44 H10         20.9890   -20.0270    50.4710 hc         1 E7K       0.060700
     45 H11         21.9030   -18.6220    49.9670 hc         1 E7K       0.060700
     46 H13         20.7910   -15.3750    53.4140 ha         1 E7K       0.132000
     47 H14         21.6450   -14.9220    55.5010 h4         1 E7K       0.156000
     48 H15         19.5600   -16.9640    58.6560 h4         1 E7K       0.038100
     49 H16         14.6720   -16.3940    38.3340 hc         1 E7K       0.042033
     50 H17         15.3630   -17.9400    37.8690 hc         1 E7K       0.042033
     51 H18         13.7800   -17.8820    38.6390 hc         1 E7K       0.042033
     52 H19         13.9560   -18.5870    41.3200 h4         1 E7K       0.158000
     53 H20         16.8740   -16.3530    46.6910 h1         1 E7K       0.081200
     54 H21         15.1690   -16.5070    47.0690 h1         1 E7K       0.081200
     55 H22         14.7000   -20.6000    47.5370 hc         1 E7K       0.063200
     56 H23         16.4440   -20.5240    47.6330 hc         1 E7K       0.063200
     57 H24         20.9910   -16.3270    51.1760 ha         1 E7K       0.119000
     58 H25         20.6850   -20.2680    52.8030 ha         1 E7K       0.119000
     59 H26         20.9800   -14.6740    58.1390 ha         1 E7K       0.147000
     60 H12         20.5150   -19.3260    55.0640 ha         1 E7K       0.132000
@<TRIPOS>BOND
     1     1    17 2   
     2     1    18 1   
     3     2    10 1   
     4     2    26 2   
     5     3    17 1   
     6     3    35 1   
     7     3    36 1   
     8     3    37 1   
     9     4     5 ar  
    10     4     9 ar  
    11     4    20 1   
    12     5     6 ar  
    13     5    38 1   
    14     6     7 ar  
    15     6    39 1   
    16     7    22 ar  
    17     7    25 1   
    18     8    24 1   
    19     8    25 1   
    20     8    40 1   
    21     8    41 1   
    22     9    22 ar  
    23     9    42 1   
    24    10    28 2   
    25    10    43 1   
    26    11    28 1   
    27    11    29 1   
    28    11    44 1   
    29    11    45 1   
    30    12    13 ar  
    31    12    31 ar  
    32    12    60 1   
    33    13    14 ar  
    34    13    32 1   
    35    14    30 ar  
    36    14    46 1   
    37    15    32 1   
    38    15    34 2   
    39    15    47 1   
    40    16    33 2   
    41    16    34 1   
    42    16    48 1   
    43    17    20 1   
    44    18    19 1   
    45    18    21 2   
    46    19    49 1   
    47    19    50 1   
    48    19    51 1   
    49    20    21 1   
    50    21    52 1   
    51    22    23 1   
    52    23    24 1   
    53    23    53 1   
    54    23    54 1   
    55    24    26 1   
    56    25    55 1   
    57    25    56 1   
    58    26    27 1   
    59    27    28 1   
    60    29    30 ar  
    61    29    31 ar  
    62    30    57 1   
    63    31    58 1   
    64    32    33 1   
    65    34    59 1   
@<TRIPOS>SUBSTRUCTURE
     1 E7K         1 TEMP              0 ****  ****    0 ROOT
