@<TRIPOS>MOLECULE
E7K
   60    65     1     0     0
SMALL
No Charge or Current Charge


@<TRIPOS>ATOM
      1 N1          16.3180   -17.5290    39.8200 nc         1 E7K      -0.679000
      2 N3          18.4350   -16.8750    48.5380 nc         1 E7K      -0.719000
      3 C4          18.1820   -17.5260    41.4850 c3         1 E7K      -0.122400
      4 C5          15.7220   -18.0690    43.1210 ca         1 E7K       0.001800
      5 C6          15.6750   -19.4770    43.1280 ca         1 E7K      -0.107000
      6 C7          15.7660   -20.1790    44.3400 ca         1 E7K      -0.097000
      7 C8          15.9020   -19.4850    45.5550 ca         1 E7K      -0.071300
      8 C10         15.7190   -19.3870    48.1010 c6         1 E7K       0.198800
      9 C13         15.8620   -17.3730    44.3350 ca         1 E7K      -0.098000
     10 C15         19.6090   -16.9970    49.2390 cc         1 E7K       0.313900
     11 C17         21.0040   -18.6130    50.6980 c3         1 E7K       0.053200
     12 C20         20.0620   -18.3400    54.4060 ca         1 E7K      -0.111500
     13 C21         20.6990   -17.1400    54.7860 ca         1 E7K       0.019800
     14 C22         21.4360   -16.4230    53.8200 ca         1 E7K      -0.111500
     15 C24         21.6650   -16.1000    56.7930 cc         1 E7K      -0.161000
     16 C26         19.7170   -16.1340    57.9180 cd         1 E7K       0.243900
     17 C3          16.7340   -17.4730    41.0790 cd         1 E7K       0.425800
     18 C1          14.9480   -17.5680    39.8890 cc         1 E7K       0.253300
     19 C           14.1260   -17.7030    38.6420 c3         1 E7K      -0.107400
     20 N           15.6460   -17.3520    41.9260 na         1 E7K      -0.081300
     21 C2          14.4980   -17.5440    41.1850 cd         1 E7K      -0.222000
     22 C12         15.9550   -18.0700    45.5560 ca         1 E7K      -0.093300
     23 C11         16.1070   -17.2760    46.8650 c6         1 E7K       0.242100
     24 N2          16.5090   -18.1350    48.0150 nh         1 E7K      -0.730300
     25 C9          16.0130   -20.2670    46.8680 c6         1 E7K      -0.067100
     26 C14         17.7610   -18.0060    48.6270 cd         1 E7K       0.696300
     27 S           18.4800   -19.3020    49.5810 ss         1 E7K      -0.097400
     28 C16         19.8230   -18.2080    49.8570 cd         1 E7K      -0.241300
     29 C18         20.9050   -18.1000    52.1280 ca         1 E7K      -0.088300
     30 C23         21.5370   -16.8990    52.5010 ca         1 E7K      -0.088500
     31 C19         20.1650   -18.8160    53.0870 ca         1 E7K      -0.088500
     32 N4          20.6020   -16.6670    56.1010 na         1 E7K       0.224000
     33 N5          19.3930   -16.6900    56.7640 nc         1 E7K      -0.518800
     34 C25         21.0810   -15.7600    57.9810 cd         1 E7K      -0.227000
     35 H1          18.8370   -17.2210    40.6610 hc         1 E7K       0.056033
     36 H2          18.3750   -16.8570    42.3310 hc         1 E7K       0.056033
     37 H3          18.4630   -18.5410    41.7850 hc         1 E7K       0.056033
     38 H4          15.5710   -20.0270    42.1950 ha         1 E7K       0.130000
     39 H5          15.7320   -21.2670    44.3340 ha         1 E7K       0.118000
     40 H6          14.6460   -19.1450    48.1140 h1         1 E7K       0.067700
     41 H7          15.9210   -19.9490    49.0250 h1         1 E7K       0.067700
     42 H8          15.9000   -16.2860    44.3290 ha         1 E7K       0.130000
     43 H9          20.2790   -16.1460    49.2640 h4         1 E7K       0.037100
     44 H10         21.0980   -19.7060    50.7050 hc         1 E7K       0.060700
     45 H11         21.9280   -18.2480    50.2330 hc         1 E7K       0.060700
     46 H13         21.9260   -15.4890    54.0860 ha         1 E7K       0.132000
     47 H14         22.6720   -16.0050    56.4050 h4         1 E7K       0.156000
     48 H15         18.9580   -16.0110    58.6800 h4         1 E7K       0.038100
     49 H16         14.3610   -16.9020    37.9300 hc         1 E7K       0.042033
     50 H17         14.3180   -18.6640    38.1510 hc         1 E7K       0.042033
     51 H18         13.0550   -17.6470    38.8710 hc         1 E7K       0.042033
     52 H19         13.5040   -17.6380    41.6040 h4         1 E7K       0.158000
     53 H20         16.8260   -16.4620    46.6900 h1         1 E7K       0.081200
     54 H21         15.1460   -16.7900    47.0880 h1         1 E7K       0.081200
     55 H22         15.3240   -21.1220    46.8610 hc         1 E7K       0.063200
     56 H23         17.0250   -20.6840    46.9520 hc         1 E7K       0.063200
     57 H24         22.1060   -16.3300    51.7680 ha         1 E7K       0.119000
     58 H25         19.6650   -19.7420    52.8090 ha         1 E7K       0.119000
     59 H26         21.5710   -15.2860    58.8250 ha         1 E7K       0.147000
     60 H12         19.4900   -18.9090    55.1350 ha         1 E7K       0.132000
@<TRIPOS>BOND
     1     1    17 2   
     2     1    18 1   
     3     2    10 1   
     4     2    26 2   
     5     3    17 1   
     6     3    35 1   
     7     3    36 1   
     8     3    37 1   
     9     4     5 ar  
    10     4     9 ar  
    11     4    20 1   
    12     5     6 ar  
    13     5    38 1   
    14     6     7 ar  
    15     6    39 1   
    16     7    22 ar  
    17     7    25 1   
    18     8    24 1   
    19     8    25 1   
    20     8    40 1   
    21     8    41 1   
    22     9    22 ar  
    23     9    42 1   
    24    10    28 2   
    25    10    43 1   
    26    11    28 1   
    27    11    29 1   
    28    11    44 1   
    29    11    45 1   
    30    12    13 ar  
    31    12    31 ar  
    32    12    60 1   
    33    13    14 ar  
    34    13    32 1   
    35    14    30 ar  
    36    14    46 1   
    37    15    32 1   
    38    15    34 2   
    39    15    47 1   
    40    16    33 2   
    41    16    34 1   
    42    16    48 1   
    43    17    20 1   
    44    18    19 1   
    45    18    21 2   
    46    19    49 1   
    47    19    50 1   
    48    19    51 1   
    49    20    21 1   
    50    21    52 1   
    51    22    23 1   
    52    23    24 1   
    53    23    53 1   
    54    23    54 1   
    55    24    26 1   
    56    25    55 1   
    57    25    56 1   
    58    26    27 1   
    59    27    28 1   
    60    29    30 ar  
    61    29    31 ar  
    62    30    57 1   
    63    31    58 1   
    64    32    33 1   
    65    34    59 1   
@<TRIPOS>SUBSTRUCTURE
     1 E7K         1 TEMP              0 ****  ****    0 ROOT
