@<TRIPOS>MOLECULE
E7L
   35    34     1     0     0
SMALL
No Charge or Current Charge


@<TRIPOS>ATOM
      1 N           18.9940    11.0860    33.0200 n8         1 E7L      -0.985200
      2 CA          18.4150     9.8690    32.3470 c3         1 E7L       0.075500
      3 C           19.4740     8.9450    31.6430 c          1 E7L       0.648700
      4 O           19.5380     8.8190    30.4260 o          1 E7L      -0.493100
      5 CB          17.5060     9.1240    33.3710 c3         1 E7L      -0.102400
      6 CG          16.4930     8.0900    32.7910 c3         1 E7L      -0.054700
      7 CD1         17.1520     6.8370    32.1630 c3         1 E7L      -0.090600
      8 CD2         15.4780     7.6640    33.8790 c3         1 E7L      -0.090600
      9 CAB         22.5150    10.6270    30.8320 c          1 E7L       0.614100
     10 CAC         23.1440    10.9670    32.1840 c3         1 E7L      -0.177100
     11 CAE         22.9810     8.1380    31.1420 c3         1 E7L       0.119000
     12 CAF         21.7880     7.2670    31.6020 c3         1 E7L       0.038600
     13 NAA         22.5830     9.3290    30.3750 ns         1 E7L      -0.520900
     14 OAD         22.0060    11.4870    30.1310 o          1 E7L      -0.595100
     15 SAG         20.6630     8.1520    32.7870 ss         1 E7L      -0.414600
     16 H1          18.2450    11.6090    33.4900 hn         1 E7L       0.405000
     17 H2          19.6030    10.7890    33.7930 hn         1 E7L       0.405000
     18 H4          17.7640    10.2310    31.5380 h1         1 E7L       0.087700
     19 H5          18.1270     8.6340    34.1310 hc         1 E7L       0.048700
     20 H6          16.9220     9.8810    33.9100 hc         1 E7L       0.048700
     21 H7          15.9190     8.5910    32.0010 hc         1 E7L       0.047700
     22 H8          16.3950     6.0790    31.9290 hc         1 E7L       0.035867
     23 H9          17.6550     7.0780    31.2220 hc         1 E7L       0.035867
     24 H10         17.8800     6.3880    32.8490 hc         1 E7L       0.035867
     25 H11         14.9530     8.5360    34.2860 hc         1 E7L       0.035867
     26 H12         14.7230     6.9850    33.4630 hc         1 E7L       0.035867
     27 H13         15.9840     7.1500    34.7050 hc         1 E7L       0.035867
     28 H14         23.0710    12.0350    32.4210 hc         1 E7L       0.059700
     29 H15         22.6860    10.3550    32.9670 hc         1 E7L       0.059700
     30 H16         24.1860    10.6290    32.1910 hc         1 E7L       0.059700
     31 H17         23.6260     7.5270    30.4970 h1         1 E7L       0.053700
     32 H18         23.5810     8.4190    32.0160 h1         1 E7L       0.053700
     33 H19         21.2200     6.9090    30.7340 h1         1 E7L       0.084200
     34 H20         22.1920     6.3850    32.1150 h1         1 E7L       0.084200
     35 H21         22.1730     9.1810    29.4610 hn         1 E7L       0.317500
@<TRIPOS>BOND
     1     1     2 1   
     2     1    16 1   
     3     1    17 1   
     4     2     3 1   
     5     2     5 1   
     6     2    18 1   
     7     3     4 2   
     8     3    15 1   
     9     5     6 1   
    10     5    19 1   
    11     5    20 1   
    12     6     7 1   
    13     6     8 1   
    14     6    21 1   
    15     7    22 1   
    16     7    23 1   
    17     7    24 1   
    18     8    25 1   
    19     8    26 1   
    20     8    27 1   
    21     9    10 1   
    22     9    13 1   
    23     9    14 2   
    24    10    28 1   
    25    10    29 1   
    26    10    30 1   
    27    11    12 1   
    28    11    13 1   
    29    11    31 1   
    30    11    32 1   
    31    12    15 1   
    32    12    33 1   
    33    12    34 1   
    34    13    35 1   
@<TRIPOS>SUBSTRUCTURE
     1 E7L         1 TEMP              0 ****  ****    0 ROOT
