@<TRIPOS>MOLECULE
E7L
   35    34     1     0     0
SMALL
abcg2


@<TRIPOS>ATOM
      1 N           19.2500    10.8560    32.6260 n8         1 E7L      -0.985200
      2 CA          18.4420     9.7230    32.1880 c3         1 E7L       0.075500
      3 C           19.4160     8.8080    31.4550 c          1 E7L       0.648700
      4 O           19.4650     8.6970    30.2590 o          1 E7L      -0.493100
      5 CB          17.6200     9.0600    33.2970 c3         1 E7L      -0.102400
      6 CG          16.5150     8.0990    32.8520 c3         1 E7L      -0.054700
      7 CD1         17.0330     6.8010    32.2380 c3         1 E7L      -0.090600
      8 CD2         15.6100     7.7840    34.0410 c3         1 E7L      -0.090600
      9 CAB         22.4890    10.7070    30.9920 c          1 E7L       0.614100
     10 CAC         22.9090    10.9250    32.4240 c3         1 E7L      -0.177100
     11 CAE         22.9380     8.2410    31.1940 c3         1 E7L       0.119000
     12 CAF         21.7720     7.2910    31.4350 c3         1 E7L       0.038600
     13 NAA         22.5580     9.4480    30.5080 ns         1 E7L      -0.520900
     14 OAD         22.1360    11.6340    30.2760 o          1 E7L      -0.595100
     15 SAG         20.5310     7.9720    32.5600 ss         1 E7L      -0.414600
     16 H1          18.6360    11.6210    32.8770 hn         1 E7L       0.405000
     17 H2          19.7660    10.6190    33.4650 hn         1 E7L       0.405000
     18 H4          17.7560    10.0950    31.4210 h1         1 E7L       0.087700
     19 H5          18.2780     8.5590    34.0180 hc         1 E7L       0.048700
     20 H6          17.1530     9.8820    33.8470 hc         1 E7L       0.048700
     21 H7          15.9090     8.6150    32.0970 hc         1 E7L       0.047700
     22 H8          16.2030     6.1250    32.0230 hc         1 E7L       0.035867
     23 H9          17.5610     6.9560    31.2980 hc         1 E7L       0.035867
     24 H10         17.7100     6.2860    32.9230 hc         1 E7L       0.035867
     25 H11         15.1860     8.6920    34.4730 hc         1 E7L       0.035867
     26 H12         14.7820     7.1380    33.7460 hc         1 E7L       0.035867
     27 H13         16.1660     7.2700    34.8280 hc         1 E7L       0.035867
     28 H14         22.7280    11.9620    32.6960 hc         1 E7L       0.059700
     29 H15         22.3620    10.2830    33.1120 hc         1 E7L       0.059700
     30 H16         23.9720    10.7170    32.5540 hc         1 E7L       0.059700
     31 H17         23.6800     7.7090    30.5930 h1         1 E7L       0.053700
     32 H18         23.4220     8.4870    32.1370 h1         1 E7L       0.053700
     33 H19         21.2860     7.0100    30.5010 h1         1 E7L       0.084200
     34 H20         22.1340     6.3770    31.9060 h1         1 E7L       0.084200
     35 H21         22.2590     9.3390    29.5500 hn         1 E7L       0.317500
@<TRIPOS>BOND
     1     1     2 1   
     2     1    16 1   
     3     1    17 1   
     4     2     3 1   
     5     2     5 1   
     6     2    18 1   
     7     3     4 2   
     8     3    15 1   
     9     5     6 1   
    10     5    19 1   
    11     5    20 1   
    12     6     7 1   
    13     6     8 1   
    14     6    21 1   
    15     7    22 1   
    16     7    23 1   
    17     7    24 1   
    18     8    25 1   
    19     8    26 1   
    20     8    27 1   
    21     9    10 1   
    22     9    13 1   
    23     9    14 2   
    24    10    28 1   
    25    10    29 1   
    26    10    30 1   
    27    11    12 1   
    28    11    13 1   
    29    11    31 1   
    30    11    32 1   
    31    12    15 1   
    32    12    33 1   
    33    12    34 1   
    34    13    35 1   
@<TRIPOS>SUBSTRUCTURE
     1 E7L         1 TEMP              0 ****  ****    0 ROOT
