@<TRIPOS>MOLECULE
E7M
   70    74     1     0     0
SMALL
bcc


@<TRIPOS>ATOM
      1 C1          20.8970   -16.9350   -15.1670 cc         1 E7M      -0.038000
      2 C2          20.1080   -16.1760   -15.9770 cd         1 E7M      -0.248300
      3 C3          19.4710   -15.0290   -15.4410 cd         1 E7M       0.371200
      4 C4          21.0350   -16.5280   -13.8290 cc         1 E7M      -0.066300
      5 C5          20.6340   -15.1820   -12.1160 cc         1 E7M       0.000200
      6 C6          21.4780   -16.2260   -11.7740 cd         1 E7M       0.038600
      7 C8          19.6690   -13.1910   -10.7340 ch         1 E7M      -0.087000
      8 C9          19.1540   -12.1110    -9.9700 ca         1 E7M       0.021000
      9 C10         19.5520   -11.9420    -8.6310 ca         1 E7M      -0.026300
     10 C11         20.4980   -12.9030    -7.9840 c3         1 E7M      -0.055800
     11 C12         18.2550   -11.2230   -10.5570 ca         1 E7M      -0.047000
     12 C13         17.7560   -10.1430    -9.8410 ca         1 E7M      -0.165600
     13 C14         18.1460    -9.9720    -8.5150 ca         1 E7M      -0.096000
     14 C15         19.0280   -10.8660    -7.9270 ca         1 E7M      -0.140000
     15 C16         16.7870    -9.2380   -10.5260 c          1 E7M       0.689700
     16 C18         14.7770    -7.0450   -11.1700 ca         1 E7M      -0.098000
     17 C19         14.0500    -5.9280   -11.5680 ca         1 E7M      -0.162300
     18 C20         12.7380    -6.1620   -12.2630 c3         1 E7M       0.717200
     19 C21         14.5070    -4.6260   -11.3320 ca         1 E7M      -0.088300
     20 C22         15.7300    -4.5040   -10.6820 ca         1 E7M      -0.117000
     21 C23         16.4670    -5.6020   -10.2830 ca         1 E7M      -0.153000
     22 C24         13.7790    -3.3640   -11.7900 c3         1 E7M       0.212100
     23 C25         13.6100    -2.2000    -9.6520 c3         1 E7M       0.162800
     24 C26         13.8620    -0.8480    -8.9990 c3         1 E7M       0.164800
     25 C27         13.1470     0.4660    -7.0670 c6         1 E7M       0.130800
     26 C28         14.3650     1.3370    -6.7980 c6         1 E7M       0.093400
     27 C29         15.6750    -0.5670    -6.4460 c6         1 E7M       0.093400
     28 C30         14.4770    -1.4660    -6.7150 c6         1 E7M       0.130800
     29 O1          16.0760    -9.6380   -11.4300 o          1 E7M      -0.567100
     30 O2          15.2720     0.6860    -5.9290 os         1 E7M      -0.399600
     31 N1          19.5840   -14.6340   -14.2070 nc         1 E7M      -0.450800
     32 N3          21.7170   -17.0390   -12.8170 nd         1 E7M      -0.267600
     33 N4          16.7820    -7.9580   -10.0720 ns         1 E7M      -0.472100
     34 N5          14.0370    -2.1620   -11.0370 n7         1 E7M      -0.825200
     35 N6          13.4900    -0.8480    -7.5930 n3         1 E7M      -0.720600
     36 N2          20.3580   -15.3920   -13.4430 na         1 E7M       0.199200
     37 C7          20.1170   -14.1110   -11.3780 cg         1 E7M      -0.100300
     38 C17         16.0000    -6.8910   -10.5240 ca         1 E7M       0.065600
     39 F1          12.6760    -5.5330   -13.4470 f          1 E7M      -0.233633
     40 F2          12.5050    -7.4540   -12.5100 f          1 E7M      -0.233633
     41 F3          11.6970    -5.7230   -11.5370 f          1 E7M      -0.233633
     42 H1          21.4090   -17.8220   -15.5130 ha         1 E7M       0.168000
     43 H2          19.9570   -16.4280   -17.0160 ha         1 E7M       0.156000
     44 H3          18.8390   -14.4110   -16.0640 h4         1 E7M       0.042100
     45 H4          21.9130   -16.3980   -10.8010 h4         1 E7M       0.185000
     46 H5          21.4140   -13.0180    -8.5660 hc         1 E7M       0.051700
     47 H6          20.7700   -12.5730    -6.9840 hc         1 E7M       0.051700
     48 H7          20.0510   -13.8960    -7.9000 hc         1 E7M       0.051700
     49 H8          17.9550   -11.3770   -11.5850 ha         1 E7M       0.164000
     50 H9          17.7480    -9.1650    -7.9130 ha         1 E7M       0.133000
     51 H10         19.3120   -10.7230    -6.8920 ha         1 E7M       0.137000
     52 H11         14.3920    -8.0330   -11.3550 ha         1 E7M       0.181000
     53 H12         16.1390    -3.5230   -10.4800 ha         1 E7M       0.130000
     54 H13         17.4160    -5.4520    -9.7830 ha         1 E7M       0.133000
     55 H14         12.7000    -3.5170   -11.7810 h1         1 E7M       0.073700
     56 H15         14.0510    -3.1740   -12.8320 h1         1 E7M       0.073700
     57 H16         12.5380    -2.4160    -9.6270 h1         1 E7M       0.043200
     58 H17         14.0970    -2.9980    -9.0720 h1         1 E7M       0.043200
     59 H18         14.9100    -0.5580    -9.1720 h1         1 E7M       0.035700
     60 H19         13.2550    -0.1020    -9.5160 h1         1 E7M       0.035700
     61 H21         12.5970     0.3260    -6.1290 h1         1 E7M       0.061450
     62 H22         14.8620     1.6040    -7.7420 h1         1 E7M       0.046950
     63 H23         14.0670     2.2690    -6.3130 h1         1 E7M       0.046950
     64 H24         16.2640    -0.4310    -7.3650 h1         1 E7M       0.046950
     65 H25         16.3330    -1.0270    -5.7060 h1         1 E7M       0.046950
     66 H26         13.9890    -1.7070    -5.7650 h1         1 E7M       0.061450
     67 H27         14.8170    -2.4140    -7.1380 h1         1 E7M       0.061450
     68 H28         17.5220    -7.6980    -9.4380 hn         1 E7M       0.322500
     69 H29         15.0080    -1.8840   -11.1080 hn         1 E7M       0.357800
     70 H20         12.4720     0.9750    -7.7580 h1         1 E7M       0.061450
@<TRIPOS>BOND
     1     1     2 2   
     2     1     4 1   
     3     1    42 1   
     4     2     3 1   
     5     2    43 1   
     6     3    31 2   
     7     3    44 1   
     8     4    32 2   
     9     4    36 1   
    10     5     6 2   
    11     5    36 1   
    12     5    37 1   
    13     6    32 1   
    14     6    45 1   
    15     7     8 1   
    16     7    37 3   
    17     8     9 ar  
    18     8    11 ar  
    19     9    10 1   
    20     9    14 ar  
    21    10    46 1   
    22    10    47 1   
    23    10    48 1   
    24    11    12 ar  
    25    11    49 1   
    26    12    13 ar  
    27    12    15 1   
    28    13    14 ar  
    29    13    50 1   
    30    14    51 1   
    31    15    29 2   
    32    15    33 1   
    33    16    17 ar  
    34    16    38 ar  
    35    16    52 1   
    36    17    18 1   
    37    17    19 ar  
    38    18    39 1   
    39    18    40 1   
    40    18    41 1   
    41    19    20 ar  
    42    19    22 1   
    43    20    21 ar  
    44    20    53 1   
    45    21    38 ar  
    46    21    54 1   
    47    22    34 1   
    48    22    55 1   
    49    22    56 1   
    50    23    24 1   
    51    23    34 1   
    52    23    57 1   
    53    23    58 1   
    54    24    35 1   
    55    24    59 1   
    56    24    60 1   
    57    25    26 1   
    58    25    35 1   
    59    25    61 1   
    60    25    70 1   
    61    26    30 1   
    62    26    62 1   
    63    26    63 1   
    64    27    28 1   
    65    27    30 1   
    66    27    64 1   
    67    27    65 1   
    68    28    35 1   
    69    28    66 1   
    70    28    67 1   
    71    31    36 1   
    72    33    38 1   
    73    33    68 1   
    74    34    69 1   
@<TRIPOS>SUBSTRUCTURE
     1 E7M         1 TEMP              0 ****  ****    0 ROOT
