@<TRIPOS>MOLECULE
E7M
   70    74     1     0     0
SMALL
No Charge or Current Charge


@<TRIPOS>ATOM
      1 C1          19.4970   -18.5970   -12.1410 cc         1 E7M      -0.020000
      2 C2          20.3450   -18.3970   -13.2020 cd         1 E7M      -0.165000
      3 C3          20.7150   -17.0430   -13.5430 cd         1 E7M       0.305900
      4 C4          19.0440   -17.4420   -11.4520 cc         1 E7M      -0.117000
      5 C5          18.9000   -15.2390   -11.0510 cc         1 E7M       0.000200
      6 C6          18.1430   -15.9670   -10.1560 cd         1 E7M      -0.011400
      7 C8          19.2770   -12.6240   -11.1430 ch         1 E7M      -0.087000
      8 C9          19.5400   -11.2210   -11.1600 ca         1 E7M       0.021000
      9 C10         20.8570   -10.7190   -11.0390 ca         1 E7M      -0.026300
     10 C11         22.0600   -11.6510   -10.8920 c3         1 E7M      -0.055800
     11 C12         18.4590   -10.3290   -11.2950 ca         1 E7M      -0.029000
     12 C13         18.6600    -8.9290   -11.3100 ca         1 E7M      -0.165600
     13 C14         19.9820    -8.4400   -11.1870 ca         1 E7M      -0.078000
     14 C15         21.0630    -9.3270   -11.0550 ca         1 E7M      -0.122000
     15 C16         17.4630    -8.0070   -11.4550 c          1 E7M       0.622700
     16 C18         15.5860    -5.5370   -12.0310 ca         1 E7M      -0.080000
     17 C19         14.8010    -4.3610   -12.1450 ca         1 E7M      -0.162300
     18 C20         13.3620    -4.4630   -12.7000 c3         1 E7M       0.353300
     19 C21         15.3750    -3.1140   -11.7580 ca         1 E7M      -0.088300
     20 C22         16.7070    -3.0830   -11.2980 ca         1 E7M      -0.099000
     21 C23         17.4650    -4.2560   -11.1960 ca         1 E7M      -0.135000
     22 C24         14.6240    -1.7740   -11.8140 c3         1 E7M       0.212100
     23 C25         13.5110    -1.9920    -9.5750 c3         1 E7M       0.162800
     24 C26         13.4030    -1.3600    -8.1570 c3         1 E7M       0.164800
     25 C27         12.2410    -1.2560    -5.9550 c6         1 E7M       0.130800
     26 C28         13.4630    -1.4030    -4.9940 c6         1 E7M       0.116600
     27 C29         13.9750    -3.5690    -5.9390 c6         1 E7M       0.116600
     28 C30         12.7560    -3.4510    -6.9060 c6         1 E7M       0.130800
     29 O1          16.3300    -8.4570   -11.5860 o          1 E7M      -0.567100
     30 O2          13.7310    -2.8030    -4.7340 os         1 E7M      -0.446000
     31 N1          20.3090   -15.9280   -12.9160 nc         1 E7M      -0.450800
     32 N3          18.2370   -17.3340   -10.4110 nd         1 E7M      -0.267600
     33 N4          17.7390    -6.6440   -11.4170 ns         1 E7M      -0.146000
     34 N5          14.4210    -1.2170   -10.4560 n7         1 E7M      -0.880400
     35 N6          12.4330    -2.0200    -7.2310 n3         1 E7M      -0.720600
     36 N2          19.4560   -16.2000   -11.8560 na         1 E7M       0.249900
     37 C7          19.0710   -13.8270   -11.1200 cg         1 E7M      -0.100300
     38 C17         16.9110    -5.4950   -11.5480 ca         1 E7M      -0.027000
     39 F1          13.2120    -3.7440   -13.8350 f          1 E7M      -0.112333
     40 F2          12.9960    -5.7290   -13.0060 f          1 E7M      -0.112333
     41 F3          12.4440    -4.0130   -11.8150 f          1 E7M      -0.112333
     42 H1          19.1770   -19.5880   -11.8290 ha         1 E7M       0.150000
     43 H2          20.7300   -19.2330   -13.7750 ha         1 E7M       0.138000
     44 H3          21.3810   -16.8450   -14.3730 h4         1 E7M       0.042100
     45 H4          17.5360   -15.5810    -9.3420 h4         1 E7M       0.235000
     46 H5          22.1420   -12.3280   -11.7510 hc         1 E7M       0.051700
     47 H6          23.0020   -11.0950   -10.8220 hc         1 E7M       0.051700
     48 H7          21.9750   -12.2640    -9.9860 hc         1 E7M       0.051700
     49 H8          17.4520   -10.7330   -11.3870 ha         1 E7M       0.146000
     50 H9          20.1960    -7.3730   -11.1950 ha         1 E7M       0.115000
     51 H10         22.0690    -8.9250   -10.9630 ha         1 E7M       0.119000
     52 H11         15.1630    -6.4880   -12.3360 ha         1 E7M       0.163000
     53 H12         17.1620    -2.1370   -11.0150 ha         1 E7M       0.112000
     54 H13         18.4890    -4.1990   -10.8330 ha         1 E7M       0.115000
     55 H14         13.6630    -1.8680   -12.3330 h1         1 E7M       0.073700
     56 H15         15.2250    -1.0770   -12.4170 h1         1 E7M       0.073700
     57 H16         12.5050    -2.0340   -10.0130 h1         1 E7M       0.043200
     58 H17         13.8740    -3.0240    -9.4760 h1         1 E7M       0.043200
     59 H18         14.4070    -1.3470    -7.7120 h1         1 E7M       0.035700
     60 H19         13.1050    -0.3110    -8.2920 h1         1 E7M       0.035700
     61 H21         11.3460    -1.6220    -5.4310 h1         1 E7M       0.061450
     62 H22         14.3560    -0.9370    -5.4330 h1         1 E7M       0.046950
     63 H23         13.2510    -0.8970    -4.0420 h1         1 E7M       0.046950
     64 H24         14.8900    -3.2020    -6.4260 h1         1 E7M       0.046950
     65 H25         14.1340    -4.6220    -5.6670 h1         1 E7M       0.046950
     66 H26         11.8910    -3.9230    -6.4170 h1         1 E7M       0.061450
     67 H27         12.9500    -4.0400    -7.8130 h1         1 E7M       0.061450
     68 H28         18.7140    -6.4260   -11.2670 hn         1 E7M       0.156000
     69 H29         15.3420    -1.1750   -10.0030 hn         1 E7M       0.413000
     70 H20         12.0680    -0.1890    -6.1600 h1         1 E7M       0.061450
@<TRIPOS>BOND
     1     1     2 2   
     2     1     4 1   
     3     1    42 1   
     4     2     3 1   
     5     2    43 1   
     6     3    31 2   
     7     3    44 1   
     8     4    32 2   
     9     4    36 1   
    10     5     6 2   
    11     5    36 1   
    12     5    37 1   
    13     6    32 1   
    14     6    45 1   
    15     7     8 1   
    16     7    37 3   
    17     8     9 ar  
    18     8    11 ar  
    19     9    10 1   
    20     9    14 ar  
    21    10    46 1   
    22    10    47 1   
    23    10    48 1   
    24    11    12 ar  
    25    11    49 1   
    26    12    13 ar  
    27    12    15 1   
    28    13    14 ar  
    29    13    50 1   
    30    14    51 1   
    31    15    29 2   
    32    15    33 1   
    33    16    17 ar  
    34    16    38 ar  
    35    16    52 1   
    36    17    18 1   
    37    17    19 ar  
    38    18    39 1   
    39    18    40 1   
    40    18    41 1   
    41    19    20 ar  
    42    19    22 1   
    43    20    21 ar  
    44    20    53 1   
    45    21    38 ar  
    46    21    54 1   
    47    22    34 1   
    48    22    55 1   
    49    22    56 1   
    50    23    24 1   
    51    23    34 1   
    52    23    57 1   
    53    23    58 1   
    54    24    35 1   
    55    24    59 1   
    56    24    60 1   
    57    25    26 1   
    58    25    35 1   
    59    25    61 1   
    60    25    70 1   
    61    26    30 1   
    62    26    62 1   
    63    26    63 1   
    64    27    28 1   
    65    27    30 1   
    66    27    64 1   
    67    27    65 1   
    68    28    35 1   
    69    28    66 1   
    70    28    67 1   
    71    31    36 1   
    72    33    38 1   
    73    33    68 1   
    74    34    69 1   
@<TRIPOS>SUBSTRUCTURE
     1 E7M         1 TEMP              0 ****  ****    0 ROOT
