@<TRIPOS>MOLECULE
E7N
   65    68     1     0     0
SMALL
No Charge or Current Charge


@<TRIPOS>ATOM
      1 C15         -7.6610     1.3770     1.0820 c6         1 E7N       0.203300
      2 C17         -4.0950    -1.7660     0.1560 ca         1 E7N      -0.070500
      3 C20          1.7200     0.4770    -0.4450 cp         1 E7N      -0.046000
      4 C21          2.8680     0.2040     0.3380 ca         1 E7N      -0.046000
      5 C22          3.8830     1.1670     0.5210 ca         1 E7N       0.193000
      6 C26          7.0840    -2.2900    -0.3410 c3         1 E7N      -0.045400
      7 C02          0.8770    -1.8850    -0.9860 ca         1 E7N       0.616900
      8 C04         -1.3310    -2.4600    -0.9360 ca         1 E7N       0.402900
      9 C05         -1.7400    -1.1510    -0.5680 cp         1 E7N      -0.136000
     10 C06         -3.1830    -0.8090    -0.3530 cp         1 E7N      -0.058000
     11 C07         -3.6850     0.4800    -0.6550 ca         1 E7N      -0.070500
     12 C08         -5.0400     0.7970    -0.4530 ca         1 E7N      -0.167500
     13 C09         -5.9360    -0.1590     0.0560 ca         1 E7N       0.308000
     14 C11         -8.3700    -0.8660     0.2300 c6         1 E7N       0.203300
     15 C12         -9.7860    -0.2740    -0.0840 c6         1 E7N       0.149300
     16 C14         -9.0900     1.9290     0.7510 c6         1 E7N       0.149300
     17 C16         -5.4490    -1.4460     0.3570 ca         1 E7N      -0.167500
     18 C18         -0.7170    -0.1850    -0.4130 ca         1 E7N      -0.020000
     19 C19          0.6350    -0.5390    -0.6180 cp         1 E7N      -0.163000
     20 C25          6.2460    -0.9940    -0.2490 c3         1 E7N      -0.341400
     21 C27          7.3700    -2.7000    -1.7970 c3         1 E7N      -0.084100
     22 C30          3.7440     2.4420    -0.0840 ca         1 E7N       0.112100
     23 C32          4.7010     4.6950    -0.4720 c3         1 E7N       0.151900
     24 C33          2.6000     2.7290    -0.8610 ca         1 E7N      -0.187000
     25 C34          1.6020     1.7570    -1.0330 ca         1 E7N      -0.064000
     26 N03         -0.0450    -2.8220    -1.1490 nb         1 E7N      -0.750000
     27 N10         -7.2960     0.1820     0.2500 nh         1 E7N      -0.796400
     28 N13        -10.1470     0.8770     0.7930 n7         1 E7N      -0.859400
     29 N23          5.0230     0.9120     1.3000 nu         1 E7N      -0.853100
     30 O28          5.0110    -1.4750     2.0780 o          1 E7N      -0.528500
     31 O29          7.1450    -0.0920     2.0900 o          1 E7N      -0.528500
     32 O31          4.7520     3.3770     0.1040 os         1 E7N      -0.361100
     33 S24          5.8950    -0.4940     1.4430 s6         1 E7N       1.170100
     34 H151        -6.9370     2.1920     0.9370 h1         1 E7N       0.044950
     35 H152        -7.6280     1.1050     2.1470 h1         1 E7N       0.044950
     36 H171        -3.7500    -2.7650     0.4150 ha         1 E7N       0.109500
     37 H211         2.9460    -0.7630     0.8240 ha         1 E7N       0.159000
     38 H262         8.0390    -2.1520     0.1840 hc         1 E7N       0.057200
     39 H261         6.5560    -3.1100     0.1630 hc         1 E7N       0.057200
     40 H041        -2.0690    -3.2470    -1.0840 h4         1 E7N       0.019100
     41 H071        -3.0260     1.2400    -1.0660 ha         1 E7N       0.109500
     42 H081        -5.3960     1.7900    -0.7100 ha         1 E7N       0.112500
     43 H112        -8.4100    -1.3740     1.2050 h1         1 E7N       0.044950
     44 H111        -8.1420    -1.6300    -0.5280 h1         1 E7N       0.044950
     45 H121        -9.8000     0.0590    -1.1330 h1         1 E7N       0.038950
     46 H122       -10.5420    -1.0660     0.0160 h1         1 E7N       0.038950
     47 H142        -9.3420     2.7330     1.4580 h1         1 E7N       0.038950
     48 H141        -9.0680     2.3740    -0.2550 h1         1 E7N       0.038950
     49 H161        -6.1120    -2.2040     0.7620 ha         1 E7N       0.112500
     50 H181        -0.9640     0.8300    -0.1110 ha         1 E7N       0.117000
     51 H251         6.7760    -0.1550    -0.7140 h1         1 E7N       0.093200
     52 H252         5.2760    -1.1270    -0.7390 h1         1 E7N       0.093200
     53 H273         7.9650    -3.6210    -1.8260 hc         1 E7N       0.034700
     54 H271         6.4340    -2.8800    -2.3400 hc         1 E7N       0.034700
     55 H272         7.9280    -1.9140    -2.3190 hc         1 E7N       0.034700
     56 H321         5.5960     5.2650    -0.1960 h1         1 E7N       0.046700
     57 H323         4.6560     4.6420    -1.5670 h1         1 E7N       0.046700
     58 H322         3.8230     5.2460    -0.1090 h1         1 E7N       0.046700
     59 H331         2.4670     3.6960    -1.3370 ha         1 E7N       0.122000
     60 H341         0.7280     1.9930    -1.6360 ha         1 E7N       0.120000
     61 H012         2.0280    -3.2920    -1.7490 hn         1 E7N       0.481000
     62 H011         2.7660    -1.7470    -1.6420 hn         1 E7N       0.481000
     63 H131       -11.0370     1.2800     0.4710 hn         1 E7N       0.413000
     64 H231         5.7160     1.6500     1.3090 hn         1 E7N       0.498000
     65 N01          2.0740    -2.3930    -1.2870 nv         1 E7N      -1.044900
@<TRIPOS>BOND
     1     1    16 1   
     2     1    27 1   
     3     1    34 1   
     4     1    35 1   
     5     2    10 ar  
     6     2    17 ar  
     7     2    36 1   
     8     3     4 ar  
     9     3    19 1   
    10     3    25 ar  
    11     4     5 ar  
    12     4    37 1   
    13     5    22 ar  
    14     5    29 1   
    15     6    20 1   
    16     6    21 1   
    17     6    38 1   
    18     6    39 1   
    19     7    19 ar  
    20     7    26 ar  
    21     7    65 1   
    22     8     9 ar  
    23     8    26 ar  
    24     8    40 1   
    25     9    10 1   
    26     9    18 ar  
    27    10    11 ar  
    28    11    12 ar  
    29    11    41 1   
    30    12    13 ar  
    31    12    42 1   
    32    13    17 ar  
    33    13    27 1   
    34    14    15 1   
    35    14    27 1   
    36    14    43 1   
    37    14    44 1   
    38    15    28 1   
    39    15    45 1   
    40    15    46 1   
    41    16    28 1   
    42    16    47 1   
    43    16    48 1   
    44    17    49 1   
    45    18    19 ar  
    46    18    50 1   
    47    20    33 1   
    48    20    51 1   
    49    20    52 1   
    50    21    53 1   
    51    21    54 1   
    52    21    55 1   
    53    22    24 ar  
    54    22    32 1   
    55    23    32 1   
    56    23    56 1   
    57    23    57 1   
    58    23    58 1   
    59    24    25 ar  
    60    24    59 1   
    61    25    60 1   
    62    28    63 1   
    63    29    33 1   
    64    29    64 1   
    65    30    33 2   
    66    31    33 2   
    67    61    65 1   
    68    62    65 1   
@<TRIPOS>SUBSTRUCTURE
     1 E7N         1 TEMP              0 ****  ****    0 ROOT
