@<TRIPOS>MOLECULE
E7N
   65    68     1     0     0
SMALL
bcc


@<TRIPOS>ATOM
      1 C15         -7.6640     1.8240     0.3530 c6         1 E7N       0.203300
      2 C17         -4.3870    -1.6940     0.4890 ca         1 E7N      -0.088500
      3 C20          1.5080    -0.1110    -0.2140 cp         1 E7N      -0.046000
      4 C21          2.5850    -0.3680     0.6360 ca         1 E7N      -0.064000
      5 C22          3.6530     0.5070     0.7260 ca         1 E7N       0.054600
      6 C26          7.7020    -1.2370    -0.9200 c3         1 E7N      -0.045400
      7 C02          0.5390    -2.4310    -0.5380 ca         1 E7N       0.682200
      8 C04         -1.7300    -2.7710    -0.5160 ca         1 E7N       0.468200
      9 C05         -2.0280    -1.4320    -0.2990 cp         1 E7N      -0.201300
     10 C06         -3.4130    -0.9530    -0.1750 cp         1 E7N      -0.058000
     11 C07         -3.8140     0.2680    -0.7230 ca         1 E7N      -0.088500
     12 C08         -5.1150     0.7190    -0.6240 ca         1 E7N      -0.185500
     13 C09         -6.1010    -0.0300     0.0410 ca         1 E7N       0.169600
     14 C11         -8.4100    -0.4490     0.7080 c6         1 E7N       0.203300
     15 C12         -9.8100    -0.0190     0.3080 c6         1 E7N       0.149300
     16 C14         -9.0750     2.2080    -0.0470 c6         1 E7N       0.149300
     17 C16         -5.6940    -1.2470     0.6050 ca         1 E7N      -0.185500
     18 C18         -0.9290    -0.5760    -0.2050 ca         1 E7N      -0.038000
     19 C19          0.3680    -1.0430    -0.3150 cp         1 E7N      -0.228300
     20 C25          6.6280    -0.2930    -0.3940 c3         1 E7N      -0.230600
     21 C27          8.3280    -0.6780    -2.1910 c3         1 E7N      -0.084100
     22 C30          3.6510     1.7010    -0.0120 ca         1 E7N       0.112100
     23 C32          4.7750     3.7200    -0.5570 c3         1 E7N       0.128700
     24 C33          2.5650     1.9840    -0.8320 ca         1 E7N      -0.205000
     25 C34          1.5180     1.0790    -0.9360 ca         1 E7N      -0.082000
     26 N03         -0.5020    -3.2540    -0.6350 nb         1 E7N      -0.750000
     27 N10         -7.4180     0.4110     0.0910 nh         1 E7N      -0.658000
     28 N13        -10.0230     1.3700     0.6600 n7         1 E7N      -0.804200
     29 N23          4.7400     0.2010     1.5790 nu         1 E7N      -0.659500
     30 O28          5.1140    -2.1370     0.7260 o          1 E7N      -0.599300
     31 O29          6.8440    -0.9990     2.1480 o          1 E7N      -0.599300
     32 O31          4.7260     2.4880     0.1410 os         1 E7N      -0.337900
     33 S24          5.8530    -0.9370     1.0850 s6         1 E7N       1.200900
     34 H151        -6.9680     2.4410    -0.2100 h1         1 E7N       0.044950
     35 H152        -7.5130     2.0490     1.4190 h1         1 E7N       0.044950
     36 H171        -4.1220    -2.6310     0.9630 ha         1 E7N       0.127500
     37 H211         2.5900    -1.2550     1.2540 ha         1 E7N       0.177000
     38 H262         8.4730    -1.3760    -0.1600 hc         1 E7N       0.057200
     39 H261         7.2670    -2.2160    -1.1230 hc         1 E7N       0.057200
     40 H041        -2.5310    -3.4960    -0.6230 h4         1 E7N       0.019100
     41 H071        -3.1010     0.8730    -1.2720 ha         1 E7N       0.127500
     42 H081        -5.3680     1.6550    -1.1030 ha         1 E7N       0.130500
     43 H112        -8.3200    -0.4490     1.8050 h1         1 E7N       0.044950
     44 H111        -8.2650    -1.4740     0.3680 h1         1 E7N       0.044950
     45 H121        -9.9370    -0.2070    -0.7700 h1         1 E7N       0.038950
     46 H122       -10.5320    -0.6450     0.8350 h1         1 E7N       0.038950
     47 H142        -9.2420     3.2540     0.2170 h1         1 E7N       0.038950
     48 H141        -9.1670     2.1240    -1.1410 h1         1 E7N       0.038950
     49 H161        -6.3880    -1.8590     1.1640 ha         1 E7N       0.130500
     50 H181        -1.0840     0.4790    -0.0100 ha         1 E7N       0.135000
     51 H251         7.0440     0.6810    -0.1310 h1         1 E7N       0.093200
     52 H252         5.8360    -0.1460    -1.1300 h1         1 E7N       0.093200
     53 H273         9.1070    -1.3440    -2.5600 hc         1 E7N       0.034700
     54 H271         7.5850    -0.5640    -2.9810 hc         1 E7N       0.034700
     55 H272         8.7820     0.2980    -2.0140 hc         1 E7N       0.034700
     56 H321         5.7150     4.1900    -0.2800 h1         1 E7N       0.046700
     57 H323         4.7580     3.5720    -1.6390 h1         1 E7N       0.046700
     58 H322         3.9520     4.3790    -0.2710 h1         1 E7N       0.046700
     59 H331         2.5300     2.8950    -1.4140 ha         1 E7N       0.140000
     60 H341         0.6980     1.3080    -1.6050 ha         1 E7N       0.138000
     61 H012         1.7920    -3.9230    -1.0520 hn         1 E7N       0.425800
     62 H011         2.5590    -2.4250    -0.8830 hn         1 E7N       0.425800
     63 H131       -10.9670     1.6420     0.4210 hn         1 E7N       0.357800
     64 H231         5.1980     1.0040     1.9990 hn         1 E7N       0.442800
     65 N01          1.7720    -3.0030    -0.6420 nv         1 E7N      -0.934500
@<TRIPOS>BOND
     1     1    16 1   
     2     1    27 1   
     3     1    34 1   
     4     1    35 1   
     5     2    10 ar  
     6     2    17 ar  
     7     2    36 1   
     8     3     4 ar  
     9     3    19 1   
    10     3    25 ar  
    11     4     5 ar  
    12     4    37 1   
    13     5    22 ar  
    14     5    29 1   
    15     6    20 1   
    16     6    21 1   
    17     6    38 1   
    18     6    39 1   
    19     7    19 ar  
    20     7    26 ar  
    21     7    65 1   
    22     8     9 ar  
    23     8    26 ar  
    24     8    40 1   
    25     9    10 1   
    26     9    18 ar  
    27    10    11 ar  
    28    11    12 ar  
    29    11    41 1   
    30    12    13 ar  
    31    12    42 1   
    32    13    17 ar  
    33    13    27 1   
    34    14    15 1   
    35    14    27 1   
    36    14    43 1   
    37    14    44 1   
    38    15    28 1   
    39    15    45 1   
    40    15    46 1   
    41    16    28 1   
    42    16    47 1   
    43    16    48 1   
    44    17    49 1   
    45    18    19 ar  
    46    18    50 1   
    47    20    33 1   
    48    20    51 1   
    49    20    52 1   
    50    21    53 1   
    51    21    54 1   
    52    21    55 1   
    53    22    24 ar  
    54    22    32 1   
    55    23    32 1   
    56    23    56 1   
    57    23    57 1   
    58    23    58 1   
    59    24    25 ar  
    60    24    59 1   
    61    25    60 1   
    62    28    63 1   
    63    29    33 1   
    64    29    64 1   
    65    30    33 2   
    66    31    33 2   
    67    61    65 1   
    68    62    65 1   
@<TRIPOS>SUBSTRUCTURE
     1 E7N         1 TEMP              0 ****  ****    0 ROOT
