@<TRIPOS>MOLECULE
E7O
   34    36     1     0     0
SMALL
abcg2


@<TRIPOS>ATOM
      1 C01        126.9950   143.4420   129.2240 ca         1 E7O      -0.109000
      2 C02        126.1430   144.0040   130.1950 ca         1 E7O      -0.141000
      3 C03        124.7980   143.7480   130.1730 ca         1 E7O      -0.056000
      4 C04        124.2320   142.9160   129.1770 ca         1 E7O      -0.056000
      5 C05        125.0950   142.3360   128.2080 ca         1 E7O      -0.019000
      6 C06        126.4790   142.6240   128.2570 ca         1 E7O      -0.123000
      7 C07        124.5610   141.4710   127.2260 ca         1 E7O      -0.154000
      8 C08        123.2210   141.2050   127.2030 ca         1 E7O      -0.080000
      9 C09        122.3520   141.7880   128.1440 ca         1 E7O      -0.154000
     10 C10        122.8330   142.6330   129.1150 ca         1 E7O       0.031000
     11 C12        120.9700   142.6860   130.6900 c          1 E7O       0.616700
     12 C14        120.2390   143.5480   131.6920 ca         1 E7O      -0.131600
     13 C15        119.6250   142.8210   132.7170 ca         1 E7O      -0.085000
     14 C16        118.9140   143.4380   133.7290 ca         1 E7O      -0.151000
     15 C17        118.7660   144.8160   133.7100 ca         1 E7O      -0.116000
     16 C18        119.3250   145.5460   132.6760 ca         1 E7O      -0.104000
     17 C19        120.0830   144.9470   131.6660 ca         1 E7O      -0.104600
     18 C20        120.6530   145.9280   130.6400 c          1 E7O       0.720600
     19 N11        122.0010   143.2650   130.0450 ns         1 E7O      -0.183000
     20 O13        120.6520   141.5130   130.5490 o          1 E7O      -0.650100
     21 O21        121.8810   145.8370   130.3800 o          1 E7O      -0.690000
     22 O22        119.8700   146.7700   130.1940 o          1 E7O      -0.690000
     23 H011       128.0560   143.6540   129.2500 ha         1 E7O       0.095000
     24 H021       126.5560   144.6380   130.9680 ha         1 E7O       0.104000
     25 H031       124.1690   144.1850   130.9360 ha         1 E7O       0.140000
     26 H061       127.1280   142.1800   127.5110 ha         1 E7O       0.097000
     27 H071       125.2260   141.0280   126.4950 ha         1 E7O       0.097000
     28 H081       122.8100   140.5460   126.4490 ha         1 E7O       0.097000
     29 H091       121.2940   141.5800   128.0780 ha         1 E7O       0.131000
     30 H151       119.7170   141.7430   132.7200 ha         1 E7O       0.117000
     31 H161       118.4730   142.8450   134.5200 ha         1 E7O       0.092000
     32 H171       118.2080   145.3210   134.4880 ha         1 E7O       0.091000
     33 H181       119.1800   146.6170   132.6530 ha         1 E7O       0.122000
     34 H111       122.1540   144.2800   130.2330 hn         1 E7O       0.243000
@<TRIPOS>BOND
     1     1     2 ar  
     2     1     6 ar  
     3     1    23 1   
     4     2     3 ar  
     5     2    24 1   
     6     3     4 ar  
     7     3    25 1   
     8     4     5 ar  
     9     4    10 ar  
    10     5     6 ar  
    11     5     7 ar  
    12     6    26 1   
    13     7     8 ar  
    14     7    27 1   
    15     8     9 ar  
    16     8    28 1   
    17     9    10 ar  
    18     9    29 1   
    19    10    19 1   
    20    11    12 1   
    21    11    19 1   
    22    11    20 2   
    23    12    13 ar  
    24    12    17 ar  
    25    13    14 ar  
    26    13    30 1   
    27    14    15 ar  
    28    14    31 1   
    29    15    16 ar  
    30    15    32 1   
    31    16    17 ar  
    32    16    33 1   
    33    17    18 1   
    34    18    21 1   
    35    18    22 1   
    36    19    34 1   
@<TRIPOS>SUBSTRUCTURE
     1 E7O         1 TEMP              0 ****  ****    0 ROOT
