@<TRIPOS>MOLECULE
E7O
   34    36     1     0     0
SMALL
No Charge or Current Charge


@<TRIPOS>ATOM
      1 C01        127.0220   143.5830   129.0720 ca         1 E7O      -0.109000
      2 C02        126.2130   144.0840   130.1020 ca         1 E7O      -0.141000
      3 C03        124.8480   143.7540   130.1550 ca         1 E7O      -0.056000
      4 C04        124.2710   142.9170   129.1700 ca         1 E7O      -0.056000
      5 C05        125.1000   142.4110   128.1370 ca         1 E7O      -0.019000
      6 C06        126.4660   142.7470   128.0920 ca         1 E7O      -0.123000
      7 C07        124.5640   141.5690   127.1480 ca         1 E7O      -0.154000
      8 C08        123.2060   141.2270   127.1750 ca         1 E7O      -0.080000
      9 C09        122.3770   141.7230   128.1920 ca         1 E7O      -0.154000
     10 C10        122.8950   142.5630   129.2020 ca         1 E7O       0.031000
     11 C12        120.8940   142.5740   130.7910 c          1 E7O       0.616700
     12 C14        120.1420   143.4600   131.7800 ca         1 E7O      -0.131600
     13 C15        119.3340   142.8160   132.7490 ca         1 E7O      -0.085000
     14 C16        118.6070   143.5490   133.6990 ca         1 E7O      -0.151000
     15 C17        118.6610   144.9470   133.6970 ca         1 E7O      -0.116000
     16 C18        119.4360   145.6110   132.7370 ca         1 E7O      -0.104000
     17 C19        120.1780   144.8910   131.7750 ca         1 E7O      -0.104600
     18 C20        120.9310   145.6970   130.7500 c          1 E7O       0.720600
     19 N11        122.0440   143.0860   130.2140 ns         1 E7O      -0.183000
     20 O13        120.4930   141.4400   130.5390 o          1 E7O      -0.650100
     21 O21        122.1290   145.8520   130.9230 o          1 E7O      -0.690000
     22 O22        120.3150   146.1130   129.7810 o          1 E7O      -0.690000
     23 H011       128.0780   143.8400   129.0340 ha         1 E7O       0.095000
     24 H021       126.6440   144.7290   130.8650 ha         1 E7O       0.104000
     25 H031       124.2550   144.1540   130.9740 ha         1 E7O       0.140000
     26 H061       127.0990   142.3600   127.2970 ha         1 E7O       0.097000
     27 H071       125.1990   141.1810   126.3540 ha         1 E7O       0.097000
     28 H081       122.7930   140.5810   126.4030 ha         1 E7O       0.097000
     29 H091       121.3230   141.4610   128.1750 ha         1 E7O       0.131000
     30 H151       119.2760   141.7290   132.7770 ha         1 E7O       0.117000
     31 H161       118.0010   143.0300   134.4380 ha         1 E7O       0.092000
     32 H171       118.0960   145.5170   134.4310 ha         1 E7O       0.091000
     33 H181       119.4590   146.6990   132.7300 ha         1 E7O       0.122000
     34 H111       122.3110   144.0030   130.5520 hn         1 E7O       0.243000
@<TRIPOS>BOND
     1     1     2 ar  
     2     1     6 ar  
     3     1    23 1   
     4     2     3 ar  
     5     2    24 1   
     6     3     4 ar  
     7     3    25 1   
     8     4     5 ar  
     9     4    10 ar  
    10     5     6 ar  
    11     5     7 ar  
    12     6    26 1   
    13     7     8 ar  
    14     7    27 1   
    15     8     9 ar  
    16     8    28 1   
    17     9    10 ar  
    18     9    29 1   
    19    10    19 1   
    20    11    12 1   
    21    11    19 1   
    22    11    20 2   
    23    12    13 ar  
    24    12    17 ar  
    25    13    14 ar  
    26    13    30 1   
    27    14    15 ar  
    28    14    31 1   
    29    15    16 ar  
    30    15    32 1   
    31    16    17 ar  
    32    16    33 1   
    33    17    18 1   
    34    18    21 1   
    35    18    22 1   
    36    19    34 1   
@<TRIPOS>SUBSTRUCTURE
     1 E7O         1 TEMP              0 ****  ****    0 ROOT
