@<TRIPOS>MOLECULE
E7P
   18    17     1     0     0
SMALL
No Charge or Current Charge


@<TRIPOS>ATOM
      1 O1          -2.4370    -0.2780     1.4730 o          1 E7P      -0.954500
      2 O2          -2.3840     1.5880    -0.1130 o          1 E7P      -0.954500
      3 C1          -0.7330    -0.5200    -0.6470 c3         1 E7P      -0.398400
      4 C4           3.0910     0.4190     0.0990 c          1 E7P       0.724000
      5 C3           1.8860    -0.3930    -0.5530 c3         1 E7P       0.021500
      6 C2           0.5280     0.0370     0.0750 c3         1 E7P      -0.054400
      7 N            2.0000    -1.8960    -0.5590 n8         1 E7P      -1.020200
      8 P           -2.3380     0.1050     0.0350 p5         1 E7P       1.322500
      9 O3          -3.4490    -0.5200    -0.7390 o          1 E7P      -0.954500
     10 H2          -0.6900    -0.2540    -1.7100 hc         1 E7P      -0.012300
     11 H3          -0.7480    -1.6140    -0.5870 hc         1 E7P      -0.012300
     12 H4           1.8490    -0.0900    -1.6090 h1         1 E7P       0.021700
     13 H5           0.4810     1.1330     0.0630 hc         1 E7P       0.043200
     14 H6           0.5060    -0.2600     1.1310 hc         1 E7P       0.043200
     15 H8           2.1330    -2.2090     0.4100 hn         1 E7P       0.373000
     16 H9           1.0760    -2.2680    -0.8070 hn         1 E7P       0.373000
     17 O5           3.4070     0.1770     1.2580 o          1 E7P      -0.779000
     18 O4           3.7180     1.2020    -0.6050 o          1 E7P      -0.779000
@<TRIPOS>BOND
     1     1     8 1   
     2     2     8 1   
     3     3     6 1   
     4     3     8 1   
     5     3    10 1   
     6     3    11 1   
     7     4     5 1   
     8     4    17 1   
     9     4    18 1   
    10     5     6 1   
    11     5     7 1   
    12     5    12 1   
    13     6    13 1   
    14     6    14 1   
    15     7    15 1   
    16     7    16 1   
    17     8     9 1   
@<TRIPOS>SUBSTRUCTURE
     1 E7P         1 TEMP              0 ****  ****    0 ROOT
