@<TRIPOS>MOLECULE
E7P
   18    17     1     0     0
SMALL
abcg2


@<TRIPOS>ATOM
      1 O1          -2.3180    -0.3060     1.5240 o          1 E7P      -0.954500
      2 O2          -2.2670     1.6760    -0.1110 o          1 E7P      -0.954500
      3 C1          -0.7360    -0.4940    -0.6630 c3         1 E7P      -0.398400
      4 C4           3.0030     0.3180     0.1020 c          1 E7P       0.724000
      5 C3           1.8440    -0.4340    -0.5810 c3         1 E7P       0.021500
      6 C2           0.5120     0.0790    -0.0040 c3         1 E7P      -0.054400
      7 N            2.0350    -1.8750    -0.4660 n8         1 E7P      -1.020200
      8 P           -2.3280     0.1490     0.0560 p5         1 E7P       1.322500
      9 O3          -3.4340    -0.5150    -0.7800 o          1 E7P      -0.954500
     10 H2          -0.7050    -0.2790    -1.7390 hc         1 E7P      -0.012300
     11 H3          -0.7420    -1.5880    -0.5780 hc         1 E7P      -0.012300
     12 H4           1.8570    -0.1770    -1.6470 h1         1 E7P       0.021700
     13 H5           0.4820     1.1680    -0.0980 hc         1 E7P       0.043200
     14 H6           0.4820    -0.1380     1.0700 hc         1 E7P       0.043200
     15 H8           2.2130    -2.0880     0.5080 hn         1 E7P       0.373000
     16 H9           1.1740    -2.3500    -0.7090 hn         1 E7P       0.373000
     17 O5           3.5820    -0.2580     1.0470 o          1 E7P      -0.779000
     18 O4           3.2420     1.4700    -0.3150 o          1 E7P      -0.779000
@<TRIPOS>BOND
     1     1     8 1   
     2     2     8 1   
     3     3     6 1   
     4     3     8 1   
     5     3    10 1   
     6     3    11 1   
     7     4     5 1   
     8     4    17 1   
     9     4    18 1   
    10     5     6 1   
    11     5     7 1   
    12     5    12 1   
    13     6    13 1   
    14     6    14 1   
    15     7    15 1   
    16     7    16 1   
    17     8     9 1   
@<TRIPOS>SUBSTRUCTURE
     1 E7P         1 TEMP              0 ****  ****    0 ROOT
