@<TRIPOS>MOLECULE
E7Q
   42    43     1     0     0
SMALL
bcc


@<TRIPOS>ATOM
      1 C01          7.1890     3.5990    -0.0480 c3         1 E7Q      -0.089100
      2 C02          5.7430     3.1950     0.2030 c3         1 E7Q      -0.074400
      3 C03          5.4630     1.7410    -0.1610 c3         1 E7Q      -0.077400
      4 C04          4.0120     1.3370     0.0670 c3         1 E7Q      -0.069400
      5 C05          3.7720    -0.1190    -0.3040 c3         1 E7Q      -0.142400
      6 C06          2.3440    -0.5520    -0.1100 c          1 E7Q       0.677100
      7 C10          0.7200    -2.3550    -0.2080 c5         1 E7Q       0.028700
      8 C11          0.4010    -2.5650     1.2730 c5         1 E7Q      -0.184400
      9 C12         -0.8910    -1.8310     1.5080 c          1 E7Q       0.726500
     10 C15         -2.4610    -0.4780     0.1720 ca         1 E7Q       0.046600
     11 C16         -3.5570    -0.9850    -0.5100 ca         1 E7Q      -0.099500
     12 C17         -4.6970    -0.2100    -0.6580 ca         1 E7Q      -0.118000
     13 C18         -4.7230     1.0630    -0.1110 ca         1 E7Q       0.033400
     14 C20         -3.6330     1.5760     0.5760 ca         1 E7Q      -0.118000
     15 C21         -2.4940     0.7990     0.7110 ca         1 E7Q      -0.099500
     16 C22         -0.3900    -1.4430    -0.7170 c          1 E7Q       0.723500
     17 N08          2.0100    -1.8020    -0.5220 n          1 E7Q      -0.343300
     18 N14         -1.2940    -1.2690     0.3080 n          1 E7Q      -0.435600
     19 O07          1.4710     0.1530     0.3730 o          1 E7Q      -0.580100
     20 O09          2.9950    -2.6920    -0.8440 oh         1 E7Q      -0.390100
     21 O13         -1.5050    -1.7290     2.5370 o          1 E7Q      -0.558500
     22 O23         -0.5050    -0.9880    -1.8220 o          1 E7Q      -0.551500
     23 CL          -6.1460     2.0320    -0.2880 cl         1 E7Q      -0.108400
     24 H1           7.3610     4.6450     0.2070 hc         1 E7Q       0.032033
     25 H2           7.8780     2.9980     0.5460 hc         1 E7Q       0.032033
     26 H3           7.4580     3.4680    -1.0980 hc         1 E7Q       0.032033
     27 H4           5.4930     3.3580     1.2560 hc         1 E7Q       0.040200
     28 H5           5.0770     3.8460    -0.3710 hc         1 E7Q       0.040200
     29 H6           5.7270     1.5750    -1.2120 hc         1 E7Q       0.036700
     30 H7           6.1200     1.0890     0.4240 hc         1 E7Q       0.036700
     31 H8           3.7470     1.5040     1.1140 hc         1 E7Q       0.056200
     32 H9           3.3580     1.9840    -0.5250 hc         1 E7Q       0.056200
     33 H10          4.0630    -0.2940    -1.3450 hc         1 E7Q       0.069200
     34 H11          4.4170    -0.7710     0.2920 hc         1 E7Q       0.069200
     35 H12          0.6320    -3.2940    -0.7590 h1         1 E7Q       0.096700
     36 H13          0.2620    -3.6190     1.5170 hc         1 E7Q       0.095700
     37 H14          1.1700    -2.1760     1.9400 hc         1 E7Q       0.095700
     38 H15         -3.5280    -1.9840    -0.9240 ha         1 E7Q       0.149000
     39 H16         -5.5530    -0.6000    -1.1910 ha         1 E7Q       0.150500
     40 H17         -3.6650     2.5710     0.9970 ha         1 E7Q       0.150500
     41 H18         -1.6320     1.1950     1.2310 ha         1 E7Q       0.149000
     42 H19          3.0080    -2.7450    -1.8090 ho         1 E7Q       0.416000
@<TRIPOS>BOND
     1     1     2 1   
     2     1    24 1   
     3     1    25 1   
     4     1    26 1   
     5     2     3 1   
     6     2    27 1   
     7     2    28 1   
     8     3     4 1   
     9     3    29 1   
    10     3    30 1   
    11     4     5 1   
    12     4    31 1   
    13     4    32 1   
    14     5     6 1   
    15     5    33 1   
    16     5    34 1   
    17     6    17 1   
    18     6    19 2   
    19     7     8 1   
    20     7    16 1   
    21     7    17 1   
    22     7    35 1   
    23     8     9 1   
    24     8    36 1   
    25     8    37 1   
    26     9    18 1   
    27     9    21 2   
    28    10    11 ar  
    29    10    15 ar  
    30    10    18 1   
    31    11    12 ar  
    32    11    38 1   
    33    12    13 ar  
    34    12    39 1   
    35    13    14 ar  
    36    13    23 1   
    37    14    15 ar  
    38    14    40 1   
    39    15    41 1   
    40    16    18 1   
    41    16    22 2   
    42    17    20 1   
    43    20    42 1   
@<TRIPOS>SUBSTRUCTURE
     1 E7Q         1 TEMP              0 ****  ****    0 ROOT
