@<TRIPOS>MOLECULE
E7Q
   42    43     1     0     0
SMALL
No Charge or Current Charge


@<TRIPOS>ATOM
      1 C01          7.8990     3.3790    -0.4120 c3         1 E7Q      -0.089100
      2 C02          6.3920     3.1800    -0.1600 c3         1 E7Q      -0.074400
      3 C03          5.9410     1.7120    -0.3220 c3         1 E7Q      -0.077400
      4 C04          4.4310     1.5120    -0.0690 c3         1 E7Q      -0.069400
      5 C05          3.9820     0.0380    -0.2320 c3         1 E7Q      -0.142400
      6 C06          2.4830    -0.2410     0.0030 c          1 E7Q       0.610100
      7 C10          0.5790    -1.9660    -0.0210 c5         1 E7Q       0.028700
      8 C11          0.2830    -2.1390     1.4920 c5         1 E7Q      -0.184400
      9 C12         -1.2340    -1.9410     1.5410 c          1 E7Q       0.584000
     10 C15         -2.8650    -0.5710     0.2500 ca         1 E7Q      -0.046000
     11 C16         -3.4920    -0.6010    -1.0150 ca         1 E7Q      -0.081500
     12 C17         -4.7760    -0.0530    -1.1880 ca         1 E7Q      -0.100000
     13 C18         -5.4440     0.5280    -0.0990 ca         1 E7Q       0.125000
     14 C20         -4.8330     0.5610     1.1630 ca         1 E7Q      -0.100000
     15 C21         -3.5490     0.0130     1.3390 ca         1 E7Q      -0.081500
     16 C22         -0.5120    -0.9720    -0.4910 c          1 E7Q       0.581000
     17 N08          2.0230    -1.5890    -0.1500 n          1 E7Q      -0.276300
     18 N14         -1.5480    -1.1330     0.4400 n          1 E7Q      -0.209000
     19 O07          1.7210     0.6570     0.3390 o          1 E7Q      -0.580100
     20 O09          2.9840    -2.6250    -0.4500 oh         1 E7Q      -0.429100
     21 O13         -2.0490    -2.5130     2.2520 o          1 E7Q      -0.483000
     22 O23         -0.5270    -0.2460    -1.4790 o          1 E7Q      -0.476000
     23 Cl          -7.0490     1.2120    -0.3170 cl         1 E7Q      -0.200000
     24 H1           8.1720     4.4340    -0.2860 hc         1 E7Q       0.032033
     25 H2           8.4930     2.7850     0.2930 hc         1 E7Q       0.032033
     26 H3           8.1650     3.0750    -1.4320 hc         1 E7Q       0.032033
     27 H4           6.1520     3.5250     0.8540 hc         1 E7Q       0.040200
     28 H5           5.8280     3.8130    -0.8560 hc         1 E7Q       0.040200
     29 H6           6.1850     1.3700    -1.3360 hc         1 E7Q       0.036700
     30 H7           6.5090     1.0820     0.3740 hc         1 E7Q       0.036700
     31 H8           4.1870     1.8540     0.9450 hc         1 E7Q       0.056200
     32 H9           3.8620     2.1410    -0.7650 hc         1 E7Q       0.056200
     33 H10          4.2470    -0.3590    -1.2180 hc         1 E7Q       0.069200
     34 H11          4.5510    -0.6300     0.4250 hc         1 E7Q       0.069200
     35 H12          0.3770    -2.9050    -0.5540 h1         1 E7Q       0.096700
     36 H13          0.5890    -3.0900     1.9400 hc         1 E7Q       0.095700
     37 H14          0.7300    -1.3110     2.0540 hc         1 E7Q       0.095700
     38 H15         -2.9960    -1.0600    -1.8680 ha         1 E7Q       0.131000
     39 H16         -5.2530    -0.0820    -2.1640 ha         1 E7Q       0.132500
     40 H17         -5.3520     1.0120     2.0050 ha         1 E7Q       0.132500
     41 H18         -3.0870     0.0540     2.3220 ha         1 E7Q       0.131000
     42 H19          3.0200    -2.6800    -1.4330 ho         1 E7Q       0.455000
@<TRIPOS>BOND
     1     1     2 1   
     2     1    24 1   
     3     1    25 1   
     4     1    26 1   
     5     2     3 1   
     6     2    27 1   
     7     2    28 1   
     8     3     4 1   
     9     3    29 1   
    10     3    30 1   
    11     4     5 1   
    12     4    31 1   
    13     4    32 1   
    14     5     6 1   
    15     5    33 1   
    16     5    34 1   
    17     6    17 1   
    18     6    19 2   
    19     7     8 1   
    20     7    16 1   
    21     7    17 1   
    22     7    35 1   
    23     8     9 1   
    24     8    36 1   
    25     8    37 1   
    26     9    18 1   
    27     9    21 2   
    28    10    11 ar  
    29    10    15 ar  
    30    10    18 1   
    31    11    12 ar  
    32    11    38 1   
    33    12    13 ar  
    34    12    39 1   
    35    13    14 ar  
    36    13    23 1   
    37    14    15 ar  
    38    14    40 1   
    39    15    41 1   
    40    16    18 1   
    41    16    22 2   
    42    17    20 1   
    43    20    42 1   
@<TRIPOS>SUBSTRUCTURE
     1 E7Q         1 TEMP              0 ****  ****    0 ROOT
