@<TRIPOS>MOLECULE
E7R
   30    31     1     0     0
SMALL
abcg2


@<TRIPOS>ATOM
      1 N          -58.4490   -40.2520    -0.6970 na         1 E7R      -0.110500
      2 C          -56.1730   -42.0470     0.2380 c3         1 E7R      -0.094100
      3 O          -57.3590   -39.2340     2.0030 o          1 E7R      -0.542000
      4 C1         -57.5670   -42.5090    -0.1570 c3         1 E7R      -0.090400
      5 C2         -58.6580   -41.4720     0.0730 c3         1 E7R       0.069600
      6 C3         -58.7360   -40.1000    -1.9940 cc         1 E7R       0.444400
      7 C4         -57.8610   -38.2830    -1.4210 cd         1 E7R       0.429900
      8 C5         -57.8660   -39.0700    -0.2980 cc         1 E7R      -0.348600
      9 C6         -57.3690   -38.6110     0.9560 c          1 E7R       0.637600
     10 C7         -56.3120   -36.6980     2.0710 c3         1 E7R       0.084300
     11 C8         -56.8470   -36.4930    -0.2640 c          1 E7R       0.622000
     12 C9         -57.3970   -36.2370    -2.6490 c3         1 E7R       0.102300
     13 N1         -58.3980   -38.9170    -2.4760 nd         1 E7R      -0.703000
     14 N2         -56.8690   -37.3050     0.8670 n          1 E7R      -0.375400
     15 N3         -57.3670   -37.0110    -1.4210 n          1 E7R      -0.358300
     16 O1         -56.3810   -35.3700    -0.2070 o          1 E7R      -0.556000
     17 H1         -55.4500   -42.8510     0.0990 hc         1 E7R       0.043700
     18 H2         -55.8370   -41.2040    -0.3690 hc         1 E7R       0.043700
     19 H3         -56.1360   -41.7390     1.2830 hc         1 E7R       0.043700
     20 H4         -57.8450   -43.3910     0.4240 hc         1 E7R       0.049200
     21 H5         -57.5780   -42.8180    -1.2050 hc         1 E7R       0.049200
     22 H6         -58.7190   -41.1980     1.1220 h1         1 E7R       0.074700
     23 H7         -59.6280   -41.8760    -0.2150 h1         1 E7R       0.074700
     24 H8         -59.2030   -40.8860    -2.5680 h5         1 E7R       0.062100
     25 H9         -56.3650   -37.4150     2.8810 h1         1 E7R       0.057700
     26 H10        -55.2720   -36.4220     1.9150 h1         1 E7R       0.057700
     27 H11        -56.8770   -35.8110     2.3520 h1         1 E7R       0.057700
     28 H12        -57.0280   -35.2370    -2.4540 h1         1 E7R       0.059033
     29 H13        -56.7720   -36.7040    -3.4080 h1         1 E7R       0.059033
     30 H14        -58.4170   -36.1720    -3.0240 h1         1 E7R       0.059033
@<TRIPOS>BOND
     1     1     5 1   
     2     1     6 1   
     3     1     8 1   
     4     2     4 1   
     5     2    17 1   
     6     2    18 1   
     7     2    19 1   
     8     3     9 2   
     9     4     5 1   
    10     4    20 1   
    11     4    21 1   
    12     5    22 1   
    13     5    23 1   
    14     6    13 2   
    15     6    24 1   
    16     7     8 2   
    17     7    13 1   
    18     7    15 1   
    19     8     9 1   
    20     9    14 1   
    21    10    14 1   
    22    10    25 1   
    23    10    26 1   
    24    10    27 1   
    25    11    14 1   
    26    11    15 1   
    27    11    16 2   
    28    12    15 1   
    29    12    28 1   
    30    12    29 1   
    31    12    30 1   
@<TRIPOS>SUBSTRUCTURE
     1 E7R         1 TEMP              0 ****  ****    0 ROOT
