@<TRIPOS>MOLECULE
E7R
   30    31     1     0     0
SMALL
No Charge or Current Charge


@<TRIPOS>ATOM
      1 N          -58.4620   -40.2570    -0.7250 na         1 E7R      -0.110500
      2 C          -56.1600   -42.1260     0.2620 c3         1 E7R      -0.094100
      3 O          -57.2840   -39.2630     1.9310 o          1 E7R      -0.542000
      4 C1         -57.5890   -42.5540    -0.1320 c3         1 E7R      -0.090400
      5 C2         -58.6620   -41.4650     0.0980 c3         1 E7R       0.069600
      6 C3         -58.8110   -40.1300    -2.0530 cc         1 E7R       0.444400
      7 C4         -57.9150   -38.2670    -1.4520 cd         1 E7R       0.429900
      8 C5         -57.8890   -39.0530    -0.3450 cc         1 E7R      -0.348600
      9 C6         -57.3250   -38.5760     0.9210 c          1 E7R       0.637600
     10 C7         -56.2320   -36.6990     2.1170 c3         1 E7R       0.084300
     11 C8         -56.8400   -36.4660    -0.2770 c          1 E7R       0.622000
     12 C9         -57.4390   -36.1480    -2.6670 c3         1 E7R       0.102300
     13 N1         -58.4860   -38.9310    -2.5130 nd         1 E7R      -0.703000
     14 N2         -56.8310   -37.2670     0.8760 n          1 E7R      -0.375400
     15 N3         -57.4130   -36.9900    -1.4450 n          1 E7R      -0.358300
     16 O1         -56.3610   -35.3390    -0.2690 o          1 E7R      -0.556000
     17 H1         -55.4560   -42.9520     0.1020 hc         1 E7R       0.043700
     18 H2         -55.8240   -41.2730    -0.3390 hc         1 E7R       0.043700
     19 H3         -56.1170   -41.8430     1.3210 hc         1 E7R       0.043700
     20 H4         -57.8630   -43.4430     0.4500 hc         1 E7R       0.049200
     21 H5         -57.5980   -42.8550    -1.1870 hc         1 E7R       0.049200
     22 H6         -58.6850   -41.1880     1.1590 h1         1 E7R       0.074700
     23 H7         -59.6480   -41.8830    -0.1440 h1         1 E7R       0.074700
     24 H8         -59.2820   -40.9310    -2.6110 h5         1 E7R       0.062100
     25 H9         -56.6470   -37.1760     3.0140 h1         1 E7R       0.057700
     26 H10        -55.1460   -36.8510     2.1030 h1         1 E7R       0.057700
     27 H11        -56.4410   -35.6240     2.1910 h1         1 E7R       0.057700
     28 H12        -57.8310   -35.1510    -2.4260 h1         1 E7R       0.059033
     29 H13        -56.4220   -36.0450    -3.0640 h1         1 E7R       0.059033
     30 H14        -58.0790   -36.5880    -3.4410 h1         1 E7R       0.059033
@<TRIPOS>BOND
     1     1     5 1   
     2     1     6 1   
     3     1     8 1   
     4     2     4 1   
     5     2    17 1   
     6     2    18 1   
     7     2    19 1   
     8     3     9 2   
     9     4     5 1   
    10     4    20 1   
    11     4    21 1   
    12     5    22 1   
    13     5    23 1   
    14     6    13 2   
    15     6    24 1   
    16     7     8 2   
    17     7    13 1   
    18     7    15 1   
    19     8     9 1   
    20     9    14 1   
    21    10    14 1   
    22    10    25 1   
    23    10    26 1   
    24    10    27 1   
    25    11    14 1   
    26    11    15 1   
    27    11    16 2   
    28    12    15 1   
    29    12    28 1   
    30    12    29 1   
    31    12    30 1   
@<TRIPOS>SUBSTRUCTURE
     1 E7R         1 TEMP              0 ****  ****    0 ROOT
