@<TRIPOS>MOLECULE
E7S
   25    26     1     0     0
SMALL
abcg2


@<TRIPOS>ATOM
      1 C10          0.0410     0.8300    -0.0440 ca         1 E7S       0.070400
      2 C01         -3.4620    -1.6430     0.0700 c3         1 E7S      -0.046800
      3 C02         -2.2300    -0.7860     0.0250 ca         1 E7S      -0.056300
      4 C03         -0.9800    -1.3870     0.0460 ca         1 E7S      -0.113000
      5 C04          0.1400    -0.5660     0.0130 ca         1 E7S      -0.080200
      6 N05          1.4870    -0.8180     0.0230 na         1 E7S      -0.295600
      7 C06          2.1200     0.3800    -0.0280 cc         1 E7S       0.407800
      8 C07          3.6070     0.4910     0.0220 c3         1 E7S       0.144300
      9 O08          4.1630    -0.7270    -0.4040 oh         1 E7S      -0.670000
     10 N09          1.2970     1.3920    -0.0720 nd         1 E7S      -0.580100
     11 C11         -1.2190     1.4250    -0.0700 ca         1 E7S      -0.049000
     12 C12         -2.3500     0.6250    -0.0350 ca         1 E7S      -0.097300
     13 C13         -3.7130     1.2570    -0.0640 c3         1 E7S      -0.041800
     14 H1          -4.0600    -1.4450     0.9630 hc         1 E7S       0.041033
     15 H2          -4.1140    -1.4650    -0.7880 hc         1 E7S       0.041033
     16 H3          -3.2060    -2.7010     0.0740 hc         1 E7S       0.041033
     17 H4          -0.8860    -2.4650     0.0870 ha         1 E7S       0.115000
     18 H5           1.9360    -1.7190     0.0660 hn         1 E7S       0.368000
     19 H6           3.9100     1.3370    -0.6030 h1         1 E7S       0.052200
     20 H7           3.9000     0.7370     1.0510 h1         1 E7S       0.052200
     21 H8           5.0870    -0.7460    -0.1380 ho         1 E7S       0.457000
     22 H10         -1.3150     2.5040    -0.1180 ha         1 E7S       0.126000
     23 H11         -4.3070     0.9870     0.8120 hc         1 E7S       0.039033
     24 H12         -3.6420     2.3440    -0.0900 hc         1 E7S       0.039033
     25 H13         -4.2860     0.9440    -0.9400 hc         1 E7S       0.039033
@<TRIPOS>BOND
     1     1     5 ar  
     2     1    10 1   
     3     1    11 ar  
     4     2     3 1   
     5     2    14 1   
     6     2    15 1   
     7     2    16 1   
     8     3     4 ar  
     9     3    12 ar  
    10     4     5 ar  
    11     4    17 1   
    12     5     6 1   
    13     6     7 1   
    14     6    18 1   
    15     7     8 1   
    16     7    10 2   
    17     8     9 1   
    18     8    19 1   
    19     8    20 1   
    20     9    21 1   
    21    11    12 ar  
    22    11    22 1   
    23    12    13 1   
    24    13    23 1   
    25    13    24 1   
    26    13    25 1   
@<TRIPOS>SUBSTRUCTURE
     1 E7S         1 TEMP              0 ****  ****    0 ROOT
