@<TRIPOS>MOLECULE
E7S
   25    26     1     0     0
SMALL
No Charge or Current Charge


@<TRIPOS>ATOM
      1 C10          0.0260     0.8100    -0.0160 ca         1 E7S       0.070400
      2 C01         -3.5110    -1.6870     0.0190 c3         1 E7S      -0.046800
      3 C02         -2.2750    -0.7930     0.0060 ca         1 E7S      -0.056300
      4 C03         -0.9930    -1.3910     0.0100 ca         1 E7S      -0.113000
      5 C04          0.1220    -0.5480    -0.0020 ca         1 E7S      -0.080200
      6 N05          1.4490    -0.8460    -0.0020 na         1 E7S      -0.295600
      7 C06          2.1420     0.3630    -0.0160 cc         1 E7S       0.407800
      8 C07          3.6600     0.4730    -0.0210 c3         1 E7S       0.144300
      9 O08          4.3310    -0.8100    -0.0090 oh         1 E7S      -0.670000
     10 N09          1.2850     1.4080    -0.0250 nd         1 E7S      -0.580100
     11 C11         -1.2280     1.4340    -0.0200 ca         1 E7S      -0.049000
     12 C12         -2.3930     0.6280    -0.0080 ca         1 E7S      -0.097300
     13 C13         -3.7620     1.3030    -0.0130 c3         1 E7S      -0.041800
     14 H1          -4.1280    -1.4960     0.9050 hc         1 E7S       0.041033
     15 H2          -4.1310    -1.5160    -0.8690 hc         1 E7S       0.041033
     16 H3          -3.2440    -2.7510     0.0300 hc         1 E7S       0.041033
     17 H4          -0.8730    -2.4720     0.0210 ha         1 E7S       0.115000
     18 H5           1.8800    -1.7610     0.0070 hn         1 E7S       0.368000
     19 H6           3.9550     1.0450    -0.9110 h1         1 E7S       0.052200
     20 H7           3.9590     1.0640     0.8560 h1         1 E7S       0.052200
     21 H8           5.3000    -0.6310    -0.0130 ho         1 E7S       0.457000
     22 H10         -1.2950     2.5190    -0.0310 ha         1 E7S       0.126000
     23 H11         -4.3390     1.0310     0.8790 hc         1 E7S       0.039033
     24 H12         -3.6770     2.3970    -0.0240 hc         1 E7S       0.039033
     25 H13         -4.3430     1.0120    -0.8950 hc         1 E7S       0.039033
@<TRIPOS>BOND
     1     1     5 ar  
     2     1    10 1   
     3     1    11 ar  
     4     2     3 1   
     5     2    14 1   
     6     2    15 1   
     7     2    16 1   
     8     3     4 ar  
     9     3    12 ar  
    10     4     5 ar  
    11     4    17 1   
    12     5     6 1   
    13     6     7 1   
    14     6    18 1   
    15     7     8 1   
    16     7    10 2   
    17     8     9 1   
    18     8    19 1   
    19     8    20 1   
    20     9    21 1   
    21    11    12 ar  
    22    11    22 1   
    23    12    13 1   
    24    13    23 1   
    25    13    24 1   
    26    13    25 1   
@<TRIPOS>SUBSTRUCTURE
     1 E7S         1 TEMP              0 ****  ****    0 ROOT
