@<TRIPOS>MOLECULE
E7T
   51    54     1     0     0
SMALL
No Charge or Current Charge


@<TRIPOS>ATOM
      1 C1           0.4070   -36.9040    -1.8570 c3         1 E7T      -0.094100
      2 C2          -0.3890   -38.0930    -2.4390 c3         1 E7T      -0.083400
      3 C3           0.3120   -38.8560    -3.6220 c6         1 E7T      -0.007400
      4 C5           0.5030   -37.8610    -4.8040 c6         1 E7T      -0.063400
      5 C6           0.6820   -38.5230    -6.1940 c6         1 E7T       0.132000
      6 O7           1.8490   -39.3840    -6.1600 oh         1 E7T      -0.630000
      7 C8          -0.6200   -39.3700    -6.4760 c6         1 E7T       0.255800
      8 N10         -0.4600   -40.1320    -7.7420 nu         1 E7T      -0.979200
      9 C11         -1.2470   -39.9480    -8.8800 ca         1 E7T       0.383000
     10 C12         -2.6190   -39.6710    -8.7440 ca         1 E7T      -0.229000
     11 C13         -3.4300   -39.4850    -9.8740 ca         1 E7T      -0.012000
     12 C14         -2.8680   -39.5830   -11.1540 ca         1 E7T      -0.212000
     13 C15         -1.5050   -39.8720   -11.2980 ca         1 E7T       0.141600
     14 N16         -0.9380   -39.9810   -12.5790 ns         1 E7T      -0.375100
     15 C18          0.3690   -40.2620   -12.8840 c          1 E7T       0.559200
     16 O19          0.7650   -40.3360   -14.0360 o          1 E7T      -0.556000
     17 C20          1.2260   -40.4610   -11.7040 cc         1 E7T      -0.299200
     18 C21          0.7420   -40.3690   -10.4140 cd         1 E7T      -0.074200
     19 C22         -0.6820   -40.0610   -10.1720 ca         1 E7T      -0.191800
     20 C23         -0.9490   -40.3520    -5.3210 ca         1 E7T      -0.064300
     21 C24         -1.7460   -41.4890    -5.5960 ca         1 E7T      -0.151000
     22 C25         -1.9780   -42.4620    -4.6210 ca         1 E7T       0.167000
     23 F26         -2.7300   -43.5440    -4.9250 f          1 E7T      -0.156000
     24 C27         -1.3940   -42.3390    -3.3560 ca         1 E7T       0.108000
     25 F28         -1.5760   -43.3180    -2.4350 f          1 E7T      -0.145000
     26 C29         -0.6180   -41.2040    -3.0440 ca         1 E7T       0.130100
     27 O30         -0.0050   -41.1540    -1.8170 oh         1 E7T      -0.517100
     28 C31         -0.4430   -40.1610    -4.0010 ca         1 E7T      -0.132300
     29 C32          0.8980   -37.3880    -7.2860 c3         1 E7T       0.264000
     30 F33          1.9050   -36.5460    -6.9480 f          1 E7T      -0.109000
     31 F34          1.2170   -37.8810    -8.5060 f          1 E7T      -0.109000
     32 F35         -0.2090   -36.6240    -7.4480 f          1 E7T      -0.109000
     33 H11C        -0.1180   -36.4830    -0.9910 hc         1 E7T       0.039033
     34 H12C         1.4020   -37.2260    -1.5280 hc         1 E7T       0.039033
     35 H13C         0.5260   -36.1030    -2.5960 hc         1 E7T       0.039033
     36 H21C        -0.6150   -38.7600    -1.6020 hc         1 E7T       0.049200
     37 H22C        -1.3680   -37.7240    -2.7710 hc         1 E7T       0.049200
     38 H3           1.3140   -39.1400    -3.2700 hc         1 E7T       0.054700
     39 H51C        -0.3640   -37.1860    -4.8550 hc         1 E7T       0.073700
     40 H52C         1.3650   -37.2180    -4.5820 hc         1 E7T       0.073700
     41 H7           1.6010   -40.1640    -5.6200 ho         1 E7T       0.459000
     42 H8          -1.4640   -38.6660    -6.5470 h1         1 E7T       0.095700
     43 H10          0.4930   -40.4200    -7.9460 hn         1 E7T       0.484000
     44 H12         -3.0730   -39.6070    -7.7610 ha         1 E7T       0.120000
     45 H13         -4.4910   -39.2700    -9.7570 ha         1 E7T       0.117000
     46 H14         -3.4950   -39.4400   -12.0310 ha         1 E7T       0.125000
     47 H16         -1.5550   -39.8390   -13.3670 hn         1 E7T       0.328500
     48 H20          2.2660   -40.6840   -11.9160 ha         1 E7T       0.211000
     49 H21          1.4340   -40.5240    -9.5910 ha         1 E7T       0.178000
     50 H24         -2.1750   -41.6410    -6.5820 ha         1 E7T       0.144000
     51 H30          0.5740   -40.3660    -1.7870 ho         1 E7T       0.474000
@<TRIPOS>BOND
     1     1     2 1   
     2     1    33 1   
     3     1    34 1   
     4     1    35 1   
     5     2     3 1   
     6     2    36 1   
     7     2    37 1   
     8     3     4 1   
     9     3    28 1   
    10     3    38 1   
    11     4     5 1   
    12     4    39 1   
    13     4    40 1   
    14     5     6 1   
    15     5     7 1   
    16     5    29 1   
    17     6    41 1   
    18     7     8 1   
    19     7    20 1   
    20     7    42 1   
    21     8     9 1   
    22     8    43 1   
    23     9    10 ar  
    24     9    19 ar  
    25    10    11 ar  
    26    10    44 1   
    27    11    12 ar  
    28    11    45 1   
    29    12    13 ar  
    30    12    46 1   
    31    13    14 1   
    32    13    19 ar  
    33    14    15 1   
    34    14    47 1   
    35    15    16 2   
    36    15    17 1   
    37    17    18 2   
    38    17    48 1   
    39    18    19 1   
    40    18    49 1   
    41    20    21 ar  
    42    20    28 ar  
    43    21    22 ar  
    44    21    50 1   
    45    22    23 1   
    46    22    24 ar  
    47    24    25 1   
    48    24    26 ar  
    49    26    27 1   
    50    26    28 ar  
    51    27    51 1   
    52    29    30 1   
    53    29    31 1   
    54    29    32 1   
@<TRIPOS>SUBSTRUCTURE
     1 E7T         1 TEMP              0 ****  ****    0 ROOT
