@<TRIPOS>MOLECULE
E7T
   51    54     1     0     0
SMALL
abcg2


@<TRIPOS>ATOM
      1 C1          -0.6890   -36.7970    -2.2200 c3         1 E7T      -0.094100
      2 C2          -1.0870   -38.0250    -3.0330 c3         1 E7T      -0.083400
      3 C3           0.1220   -38.8190    -3.5770 c6         1 E7T      -0.007400
      4 C5           0.9290   -37.9600    -4.5850 c6         1 E7T      -0.063400
      5 C6           1.2600   -38.6480    -5.9060 c6         1 E7T       0.132000
      6 O7           2.2810   -39.5960    -5.6520 oh         1 E7T      -0.630000
      7 C8          -0.0570   -39.2710    -6.4490 c6         1 E7T       0.255800
      8 N10          0.0270   -39.6710    -7.8300 nu         1 E7T      -0.979200
      9 C11         -1.0380   -39.6250    -8.7030 ca         1 E7T       0.383000
     10 C12         -2.3190   -39.2520    -8.2950 ca         1 E7T      -0.229000
     11 C13         -3.3690   -39.2010    -9.2110 ca         1 E7T      -0.012000
     12 C14         -3.1930   -39.5240   -10.5420 ca         1 E7T      -0.212000
     13 C15         -1.9160   -39.9010   -10.9700 ca         1 E7T       0.141600
     14 N16         -1.6970   -40.2220   -12.2920 ns         1 E7T      -0.375100
     15 C18         -0.4930   -40.5820   -12.8550 c          1 E7T       0.559200
     16 O19         -0.4170   -40.8480   -14.0610 o          1 E7T      -0.556000
     17 C20          0.6180   -40.6040   -11.9300 cc         1 E7T      -0.299200
     18 C21          0.4500   -40.3020   -10.6190 cd         1 E7T      -0.074200
     19 C22         -0.8240   -39.9500   -10.0770 ca         1 E7T      -0.191800
     20 C23         -0.4690   -40.3790    -5.4930 ca         1 E7T      -0.064300
     21 C24         -0.9270   -41.5950    -5.9850 ca         1 E7T      -0.151000
     22 C25         -1.2600   -42.5930    -5.0930 ca         1 E7T       0.167000
     23 F26         -1.7200   -43.7820    -5.5380 f          1 E7T      -0.156000
     24 C27         -1.1230   -42.4050    -3.7320 ca         1 E7T       0.108000
     25 F28         -1.4360   -43.4000    -2.8790 f          1 E7T      -0.145000
     26 C29         -0.6550   -41.1910    -3.2340 ca         1 E7T       0.130100
     27 O30         -0.5460   -41.1090    -1.8820 oh         1 E7T      -0.517100
     28 C31         -0.3350   -40.1540    -4.1200 ca         1 E7T      -0.132300
     29 C32          1.8310   -37.5990    -6.8880 c3         1 E7T       0.264000
     30 F33          2.7760   -36.8370    -6.2990 f          1 E7T      -0.109000
     31 F34          2.4250   -38.1680    -7.9570 f          1 E7T      -0.109000
     32 F35          0.8830   -36.7610    -7.3540 f          1 E7T      -0.109000
     33 H11C        -1.5740   -36.2840    -1.8390 hc         1 E7T       0.039033
     34 H12C        -0.0710   -37.0840    -1.3650 hc         1 E7T       0.039033
     35 H13C        -0.1220   -36.0790    -2.8170 hc         1 E7T       0.039033
     36 H21C        -1.6960   -38.6840    -2.4100 hc         1 E7T       0.049200
     37 H22C        -1.7150   -37.7350    -3.8810 hc         1 E7T       0.049200
     38 H3           0.7930   -39.0090    -2.7320 hc         1 E7T       0.054700
     39 H51C         0.3580   -37.0620    -4.8220 hc         1 E7T       0.073700
     40 H52C         1.8610   -37.6360    -4.1280 hc         1 E7T       0.073700
     41 H7           2.4760   -40.1190    -6.4410 ho         1 E7T       0.459000
     42 H8          -0.7910   -38.4670    -6.3970 h1         1 E7T       0.095700
     43 H10          0.7830   -40.2890    -8.0740 hn         1 E7T       0.484000
     44 H12         -2.5210   -39.0270    -7.2590 ha         1 E7T       0.120000
     45 H13         -4.3520   -38.9140    -8.8600 ha         1 E7T       0.117000
     46 H14         -4.0120   -39.4930   -11.2480 ha         1 E7T       0.125000
     47 H16         -2.4860   -40.1870   -12.9250 hn         1 E7T       0.328500
     48 H20          1.5870   -40.8610   -12.3330 ha         1 E7T       0.211000
     49 H21          1.3210   -40.3150    -9.9780 ha         1 E7T       0.178000
     50 H24         -1.0250   -41.7790    -7.0450 ha         1 E7T       0.144000
     51 H30         -0.1200   -40.2810    -1.6230 ho         1 E7T       0.474000
@<TRIPOS>BOND
     1     1     2 1   
     2     1    33 1   
     3     1    34 1   
     4     1    35 1   
     5     2     3 1   
     6     2    36 1   
     7     2    37 1   
     8     3     4 1   
     9     3    28 1   
    10     3    38 1   
    11     4     5 1   
    12     4    39 1   
    13     4    40 1   
    14     5     6 1   
    15     5     7 1   
    16     5    29 1   
    17     6    41 1   
    18     7     8 1   
    19     7    20 1   
    20     7    42 1   
    21     8     9 1   
    22     8    43 1   
    23     9    10 ar  
    24     9    19 ar  
    25    10    11 ar  
    26    10    44 1   
    27    11    12 ar  
    28    11    45 1   
    29    12    13 ar  
    30    12    46 1   
    31    13    14 1   
    32    13    19 ar  
    33    14    15 1   
    34    14    47 1   
    35    15    16 2   
    36    15    17 1   
    37    17    18 2   
    38    17    48 1   
    39    18    19 1   
    40    18    49 1   
    41    20    21 ar  
    42    20    28 ar  
    43    21    22 ar  
    44    21    50 1   
    45    22    23 1   
    46    22    24 ar  
    47    24    25 1   
    48    24    26 ar  
    49    26    27 1   
    50    26    28 ar  
    51    27    51 1   
    52    29    30 1   
    53    29    31 1   
    54    29    32 1   
@<TRIPOS>SUBSTRUCTURE
     1 E7T         1 TEMP              0 ****  ****    0 ROOT
