@<TRIPOS>MOLECULE
E7V
   52    55     1     0     0
SMALL
No Charge or Current Charge


@<TRIPOS>ATOM
      1 C2          18.8420     3.3430   -24.9680 ca         1 E7V      -0.045800
      2 C4          17.1180     3.9530   -23.3970 ca         1 E7V      -0.060000
      3 C5          17.0220     2.6010   -23.0000 ca         1 E7V      -0.150000
      4 C7          19.6770     4.0110   -25.9190 cc         1 E7V      -0.257200
      5 C6          17.8440     1.6210   -23.6050 ca         1 E7V      -0.086000
      6 C8          19.3590     5.3720   -25.8870 cd         1 E7V      -0.054300
      7 C1          18.7700     1.9910   -24.6010 ca         1 E7V       0.018100
      8 C11         20.0510     6.4010   -26.7410 c          1 E7V       0.717200
      9 C3          18.0460     4.2930   -24.3940 ca         1 E7V      -0.084200
     10 C19         16.9770     5.2320   -18.5160 ca         1 E7V       0.128000
     11 C20         15.7100     5.2830   -19.1350 ca         1 E7V       0.113000
     12 Cl2         14.5290     6.5170   -18.6940 cl         1 E7V      -0.188000
     13 C21         15.3710     4.3330   -20.1140 ca         1 E7V      -0.067000
     14 C18         17.9020     4.2430   -18.8920 ca         1 E7V      -0.106000
     15 C17         17.5640     3.2990   -19.8780 ca         1 E7V      -0.063000
     16 C16         16.2950     3.3390   -20.4830 ca         1 E7V      -0.095000
     17 S15         15.8600     2.1290   -21.7260 ss         1 E7V      -0.001000
     18 Br1         19.8980     0.6780   -25.4180 br         1 E7V      -0.140100
     19 O12         20.9290     6.0250   -27.5070 o          1 E7V      -0.697500
     20 O13         19.7270     7.5760   -26.6490 o          1 E7V      -0.697500
     21 N9          18.3150     5.5470   -24.9310 na         1 E7V      -0.070700
     22 C14         17.5990     6.7700   -24.5090 c3         1 E7V       0.106900
     23 C24         17.9940     7.2650   -23.1200 ca         1 E7V      -0.081300
     24 C25         17.0040     7.6320   -22.1890 ca         1 E7V      -0.101500
     25 C26         17.3640     8.0980   -20.9130 ca         1 E7V      -0.082500
     26 C29         19.3490     7.3790   -22.7570 ca         1 E7V      -0.101500
     27 C28         19.7100     7.8420   -21.4810 ca         1 E7V      -0.082500
     28 C27         18.7200     8.1930   -20.5360 ca         1 E7V      -0.147600
     29 C30         19.0750     8.7280   -19.1620 c          1 E7V       0.616700
     30 O31         18.3890     9.6040   -18.6450 o          1 E7V      -0.614100
     31 N32         20.2590     8.2760   -18.5300 n          1 E7V      -0.408800
     32 C33         20.7200     8.9390   -17.2910 c3         1 E7V       0.088300
     33 C34         20.7640     6.9000   -18.7490 c3         1 E7V       0.088300
     34 H1          16.4870     4.7090   -22.9360 ha         1 E7V       0.119000
     35 H2          20.4400     3.5620   -26.5510 ha         1 E7V       0.224000
     36 H3          17.7670     0.5800   -23.2980 ha         1 E7V       0.121000
     37 H4          14.3920     4.3700   -20.5850 ha         1 E7V       0.140000
     38 H5          18.8770     4.2020   -18.4140 ha         1 E7V       0.127000
     39 H6          18.2820     2.5350   -20.1660 ha         1 E7V       0.138000
     40 H8          17.7660     7.5710   -25.2360 h1         1 E7V       0.092700
     41 H9          16.5240     6.5540   -24.5300 h1         1 E7V       0.092700
     42 H10         15.9500     7.5610   -22.4520 ha         1 E7V       0.128500
     43 H11         16.5820     8.3810   -20.2100 ha         1 E7V       0.119000
     44 H12         20.1290     7.1200   -23.4700 ha         1 E7V       0.128500
     45 H13         20.7650     7.9540   -21.2450 ha         1 E7V       0.119000
     46 H14         20.7430    10.0260   -17.4350 h1         1 E7V       0.040033
     47 H15         20.0370     8.6970   -16.4660 h1         1 E7V       0.040033
     48 H16         21.7310     8.5980   -17.0330 h1         1 E7V       0.040033
     49 H17         20.0120     6.2850   -19.2590 h1         1 E7V       0.040033
     50 H18         21.6790     6.9320   -19.3520 h1         1 E7V       0.040033
     51 H19         20.9930     6.4270   -17.7850 h1         1 E7V       0.040033
     52 Cl1         17.4210     6.3820   -17.2540 cl         1 E7V      -0.182000
@<TRIPOS>BOND
     1     1     4 1   
     2     1     7 ar  
     3     1     9 ar  
     4     2     3 ar  
     5     2     9 ar  
     6     2    34 1   
     7     3     5 ar  
     8     3    17 1   
     9     4     6 2   
    10     4    35 1   
    11     5     7 ar  
    12     5    36 1   
    13     6     8 1   
    14     6    21 1   
    15     7    18 1   
    16     8    19 1   
    17     8    20 1   
    18     9    21 1   
    19    10    11 ar  
    20    10    14 ar  
    21    10    52 1   
    22    11    12 1   
    23    11    13 ar  
    24    13    16 ar  
    25    13    37 1   
    26    14    15 ar  
    27    14    38 1   
    28    15    16 ar  
    29    15    39 1   
    30    16    17 1   
    31    21    22 1   
    32    22    23 1   
    33    22    40 1   
    34    22    41 1   
    35    23    24 ar  
    36    23    26 ar  
    37    24    25 ar  
    38    24    42 1   
    39    25    28 ar  
    40    25    43 1   
    41    26    27 ar  
    42    26    44 1   
    43    27    28 ar  
    44    27    45 1   
    45    28    29 1   
    46    29    30 2   
    47    29    31 1   
    48    31    32 1   
    49    31    33 1   
    50    32    46 1   
    51    32    47 1   
    52    32    48 1   
    53    33    49 1   
    54    33    50 1   
    55    33    51 1   
@<TRIPOS>SUBSTRUCTURE
     1 E7V         1 TEMP              0 ****  ****    0 ROOT
