@<TRIPOS>MOLECULE
E7V
   52    55     1     0     0
SMALL
abcg2


@<TRIPOS>ATOM
      1 C2          18.9500     3.4120   -24.8210 ca         1 E7V      -0.045800
      2 C4          16.9980     4.0650   -23.4580 ca         1 E7V      -0.060000
      3 C5          16.9620     2.7730   -22.9520 ca         1 E7V      -0.150000
      4 C7          19.8230     4.0940   -25.7130 cc         1 E7V      -0.257200
      5 C6          17.8760     1.7910   -23.3770 ca         1 E7V      -0.086000
      6 C8          19.3940     5.4000   -25.8030 cd         1 E7V      -0.054300
      7 C1          18.8430     2.1160   -24.3080 ca         1 E7V       0.018100
      8 C11         19.9860     6.4780   -26.6860 c          1 E7V       0.717200
      9 C3          17.9920     4.3700   -24.3780 ca         1 E7V      -0.084200
     10 C19         16.9830     5.2700   -18.4040 ca         1 E7V       0.128000
     11 C20         15.6930     5.3060   -18.9280 ca         1 E7V       0.113000
     12 CL2         14.5240     6.4600   -18.3600 cl         1 E7V      -0.188000
     13 C21         15.3250     4.4260   -19.9400 ca         1 E7V      -0.067000
     14 C18         17.9030     4.3520   -18.9020 ca         1 E7V      -0.106000
     15 C17         17.5370     3.4710   -19.9040 ca         1 E7V      -0.063000
     16 C16         16.2440     3.5040   -20.4280 ca         1 E7V      -0.095000
     17 S15         15.7480     2.3650   -21.7100 ss         1 E7V      -0.001000
     18 BR1         20.0930     0.7770   -24.8730 br         1 E7V      -0.140100
     19 O12         21.1860     6.3140   -27.0070 o          1 E7V      -0.697500
     20 O13         19.2310     7.4180   -27.0420 o          1 E7V      -0.697500
     21 N9          18.2680     5.5630   -25.0020 na         1 E7V      -0.070700
     22 C14         17.6130     6.8110   -24.6170 c3         1 E7V       0.106900
     23 C24         18.0170     7.2600   -23.2310 ca         1 E7V      -0.081300
     24 C25         17.0680     7.4180   -22.2240 ca         1 E7V      -0.101500
     25 C26         17.4420     7.8380   -20.9540 ca         1 E7V      -0.082500
     26 C29         19.3560     7.5230   -22.9390 ca         1 E7V      -0.101500
     27 C28         19.7370     7.9220   -21.6660 ca         1 E7V      -0.082500
     28 C27         18.7810     8.0830   -20.6610 ca         1 E7V      -0.147600
     29 C30         19.1400     8.6170   -19.3070 c          1 E7V       0.616700
     30 O31         18.5120     9.5840   -18.8560 o          1 E7V      -0.614100
     31 N32         20.1660     8.0480   -18.6380 n          1 E7V      -0.408800
     32 C33         20.5970     8.6240   -17.3730 c3         1 E7V       0.088300
     33 C34         20.7490     6.7500   -18.9480 c3         1 E7V       0.088300
     34 H1          16.2850     4.8040   -23.1250 ha         1 E7V       0.119000
     35 H2          20.6600     3.6810   -26.2480 ha         1 E7V       0.224000
     36 H3          17.8280     0.7960   -22.9580 ha         1 E7V       0.121000
     37 H4          14.3270     4.4770   -20.3520 ha         1 E7V       0.140000
     38 H5          18.9020     4.3280   -18.4900 ha         1 E7V       0.127000
     39 H6          18.2580     2.7590   -20.2820 ha         1 E7V       0.138000
     40 H8          17.8880     7.5480   -25.3670 h1         1 E7V       0.092700
     41 H9          16.5340     6.6620   -24.6620 h1         1 E7V       0.092700
     42 H10         16.0260     7.2090   -22.4330 ha         1 E7V       0.128500
     43 H11         16.6940     7.9680   -20.1830 ha         1 E7V       0.119000
     44 H12         20.1090     7.4110   -23.7090 ha         1 E7V       0.128500
     45 H13         20.7790     8.1260   -21.4580 ha         1 E7V       0.119000
     46 H14         20.3310     9.6760   -17.3380 h1         1 E7V       0.040033
     47 H15         20.1260     8.1080   -16.5310 h1         1 E7V       0.040033
     48 H16         21.6780     8.5150   -17.2870 h1         1 E7V       0.040033
     49 H17         20.2130     6.2680   -19.7570 h1         1 E7V       0.040033
     50 H18         21.8000     6.8560   -19.2240 h1         1 E7V       0.040033
     51 H19         20.6840     6.1130   -18.0640 h1         1 E7V       0.040033
     52 CL1         17.4740     6.3520   -17.1380 cl         1 E7V      -0.182000
@<TRIPOS>BOND
     1     1     4 1   
     2     1     7 ar  
     3     1     9 ar  
     4     2     3 ar  
     5     2     9 ar  
     6     2    34 1   
     7     3     5 ar  
     8     3    17 1   
     9     4     6 2   
    10     4    35 1   
    11     5     7 ar  
    12     5    36 1   
    13     6     8 1   
    14     6    21 1   
    15     7    18 1   
    16     8    19 1   
    17     8    20 1   
    18     9    21 1   
    19    10    11 ar  
    20    10    14 ar  
    21    10    52 1   
    22    11    12 1   
    23    11    13 ar  
    24    13    16 ar  
    25    13    37 1   
    26    14    15 ar  
    27    14    38 1   
    28    15    16 ar  
    29    15    39 1   
    30    16    17 1   
    31    21    22 1   
    32    22    23 1   
    33    22    40 1   
    34    22    41 1   
    35    23    24 ar  
    36    23    26 ar  
    37    24    25 ar  
    38    24    42 1   
    39    25    28 ar  
    40    25    43 1   
    41    26    27 ar  
    42    26    44 1   
    43    27    28 ar  
    44    27    45 1   
    45    28    29 1   
    46    29    30 2   
    47    29    31 1   
    48    31    32 1   
    49    31    33 1   
    50    32    46 1   
    51    32    47 1   
    52    32    48 1   
    53    33    49 1   
    54    33    50 1   
    55    33    51 1   
@<TRIPOS>SUBSTRUCTURE
     1 E7V         1 TEMP              0 ****  ****    0 ROOT
