@<TRIPOS>MOLECULE
E7W
   53    56     1     0     0
SMALL
No Charge or Current Charge


@<TRIPOS>ATOM
      1 N1          -2.0580     0.3900     0.2980 nu         1 E7W      -0.876100
      2 C5          -4.1130     1.6530    -0.2290 c6         1 E7W      -0.213700
      3 C7          -4.0800     2.6530     0.9680 c6         1 E7W      -0.054400
      4 C10         -4.7720     2.0620     2.2190 c6         1 E7W      -0.080400
      5 C13         -4.1430     0.7060     2.6140 c6         1 E7W      -0.069400
      6 C26          0.7170    -2.5690     0.0700 ca         1 E7W      -0.238000
      7 C19         -3.4820     2.2420    -1.5070 c          1 E7W       0.716000
      8 O20         -2.3190     2.6200    -1.4590 o          1 E7W      -0.727500
      9 C16         -4.1850    -0.2950     1.4300 c6         1 E7W      -0.093400
     10 C3          -3.5130     0.2660     0.1390 c6         1 E7W       0.264500
     11 C23         -1.1360    -0.6400     0.2250 ca         1 E7W       0.439900
     12 N28          0.1350    -0.2370     0.1480 nb         1 E7W      -0.315000
     13 C27          1.0650    -1.1990     0.0620 ca         1 E7W       0.432900
     14 C47          1.6740    -3.6080    -0.0120 ca         1 E7W      -0.050000
     15 C49          1.2590    -4.9490    -0.0020 ca         1 E7W      -0.175000
     16 C51         -0.1050    -5.2650     0.0870 ca         1 E7W      -0.081000
     17 C53         -1.0570    -4.2360     0.1640 ca         1 E7W      -0.123000
     18 C25         -0.6600    -2.8870     0.1560 ca         1 E7W       0.115000
     19 N24         -1.5810    -1.9080     0.2300 nb         1 E7W      -0.294000
     20 N29          2.3960    -0.7860     0.0190 nu         1 E7W      -0.938900
     21 C31          3.0360     0.4410    -0.1880 ca         1 E7W       0.312000
     22 C39          2.4510     1.4840    -0.9330 ca         1 E7W      -0.115000
     23 C37          3.1420     2.6930    -1.1270 ca         1 E7W      -0.085000
     24 C35          4.4260     2.8630    -0.5860 ca         1 E7W      -0.151000
     25 C34          5.0300     1.8240     0.1470 ca         1 E7W      -0.070300
     26 C32          4.3290     0.6150     0.3350 ca         1 E7W      -0.160000
     27 C41          6.4260     2.0040     0.7340 c3         1 E7W       0.198100
     28 N44          7.4660     1.4780    -0.1680 n8         1 E7W      -0.998200
     29 H1          -1.6750     1.2880    -0.0080 hn         1 E7W       0.522000
     30 H2          -5.1690     1.4670    -0.4700 hc         1 E7W       0.044700
     31 H3          -3.0430     2.9190     1.2150 hc         1 E7W       0.040700
     32 H4          -4.5780     3.5900     0.6820 hc         1 E7W       0.040700
     33 H5          -4.6930     2.7680     3.0570 hc         1 E7W       0.019700
     34 H6          -5.8450     1.9300     2.0220 hc         1 E7W       0.019700
     35 H7          -3.1050     0.8580     2.9400 hc         1 E7W       0.023700
     36 H8          -4.6800     0.2850     3.4750 hc         1 E7W       0.023700
     37 H10         -3.7210    -1.2430     1.7320 hc         1 E7W       0.039700
     38 H11         -5.2330    -0.5360     1.2060 hc         1 E7W       0.039700
     39 H12         -3.7320    -0.4220    -0.6950 h1         1 E7W       0.087700
     40 H13          2.7370    -3.3950    -0.0880 ha         1 E7W       0.090000
     41 H14          1.9970    -5.7460    -0.0640 ha         1 E7W       0.100000
     42 H15         -0.4250    -6.3050     0.0940 ha         1 E7W       0.099000
     43 H16         -2.1130    -4.4870     0.2310 ha         1 E7W       0.127000
     44 H17          3.0360    -1.5350     0.2700 hn         1 E7W       0.492000
     45 H18          1.4700     1.3580    -1.3780 ha         1 E7W       0.168000
     46 H19          2.6830     3.4940    -1.7030 ha         1 E7W       0.117000
     47 H20          4.9550     3.8010    -0.7410 ha         1 E7W       0.101000
     48 H21          4.7940    -0.1880     0.8990 ha         1 E7W       0.120000
     49 H22          6.6190     3.0710     0.9110 h1         1 E7W       0.029700
     50 H23          6.4950     1.4800     1.6980 h1         1 E7W       0.029700
     51 H24          7.4320     2.0070    -1.0470 hn         1 E7W       0.392000
     52 H25          8.3890     1.7070     0.2200 hn         1 E7W       0.392000
     53 O21         -4.1920     2.3560    -2.4940 o          1 E7W      -0.727500
@<TRIPOS>BOND
     1     1    10 1   
     2     1    11 1   
     3     1    29 1   
     4     2     3 1   
     5     2     7 1   
     6     2    10 1   
     7     2    30 1   
     8     3     4 1   
     9     3    31 1   
    10     3    32 1   
    11     4     5 1   
    12     4    33 1   
    13     4    34 1   
    14     5     9 1   
    15     5    35 1   
    16     5    36 1   
    17     6    13 ar  
    18     6    14 ar  
    19     6    18 ar  
    20     7     8 1   
    21     7    53 1   
    22     9    10 1   
    23     9    37 1   
    24     9    38 1   
    25    10    39 1   
    26    11    12 ar  
    27    11    19 ar  
    28    12    13 ar  
    29    13    20 1   
    30    14    15 ar  
    31    14    40 1   
    32    15    16 ar  
    33    15    41 1   
    34    16    17 ar  
    35    16    42 1   
    36    17    18 ar  
    37    17    43 1   
    38    18    19 ar  
    39    20    21 1   
    40    20    44 1   
    41    21    22 ar  
    42    21    26 ar  
    43    22    23 ar  
    44    22    45 1   
    45    23    24 ar  
    46    23    46 1   
    47    24    25 ar  
    48    24    47 1   
    49    25    26 ar  
    50    25    27 1   
    51    26    48 1   
    52    27    28 1   
    53    27    49 1   
    54    27    50 1   
    55    28    51 1   
    56    28    52 1   
@<TRIPOS>SUBSTRUCTURE
     1 E7W         1 TEMP              0 ****  ****    0 ROOT
