@<TRIPOS>MOLECULE
E7W
   53    56     1     0     0
SMALL
abcg2


@<TRIPOS>ATOM
      1 N1          -2.0780     0.3990     0.1700 nu         1 E7W      -0.876100
      2 C5          -4.1710     1.5110    -0.3490 c6         1 E7W      -0.213700
      3 C7          -4.0890     2.5980     0.7190 c6         1 E7W      -0.054400
      4 C10         -4.6790     2.1290     2.0460 c6         1 E7W      -0.080400
      5 C13         -4.0020     0.8520     2.5300 c6         1 E7W      -0.069400
      6 C26          0.7780    -2.4600     0.0480 ca         1 E7W      -0.238000
      7 C19         -3.5940     1.9120    -1.7240 c          1 E7W       0.716000
      8 O20         -2.9370     2.9700    -1.7930 o          1 E7W      -0.727500
      9 C16         -4.0830    -0.2420     1.4730 c6         1 E7W      -0.093400
     10 C3          -3.5160     0.2050     0.1230 c6         1 E7W       0.264500
     11 C23         -1.1670    -0.5860     0.1330 ca         1 E7W       0.439900
     12 N28          0.1210    -0.1550     0.1340 nb         1 E7W      -0.315000
     13 C27          1.0740    -1.0440     0.0870 ca         1 E7W       0.432900
     14 C47          1.7330    -3.4900     0.0090 ca         1 E7W      -0.050000
     15 C49          1.3450    -4.8070    -0.0260 ca         1 E7W      -0.175000
     16 C51         -0.0220    -5.1280    -0.0230 ca         1 E7W      -0.081000
     17 C53         -0.9720    -4.1400     0.0150 ca         1 E7W      -0.123000
     18 C25         -0.5990    -2.7790     0.0530 ca         1 E7W       0.115000
     19 N24         -1.5690    -1.8370     0.0940 nb         1 E7W      -0.294000
     20 N29          2.3680    -0.6490     0.0690 nu         1 E7W      -0.938900
     21 C31          2.9440     0.6240     0.0940 ca         1 E7W       0.312000
     22 C39          2.2400     1.8280     0.0750 ca         1 E7W      -0.115000
     23 C37          2.9480     3.0230     0.0860 ca         1 E7W      -0.085000
     24 C35          4.3310     3.0460     0.1130 ca         1 E7W      -0.151000
     25 C34          5.0440     1.8480     0.1380 ca         1 E7W      -0.070300
     26 C32          4.3430     0.6530     0.1270 ca         1 E7W      -0.160000
     27 C41          6.5510     1.8710     0.2040 c3         1 E7W       0.198100
     28 N44          7.1520     0.6670    -0.3410 n8         1 E7W      -0.998200
     29 H1          -1.7120     1.3370     0.1830 hn         1 E7W       0.522000
     30 H2          -5.2320     1.2710    -0.4990 hc         1 E7W       0.044700
     31 H3          -3.0510     2.9080     0.8800 hc         1 E7W       0.040700
     32 H4          -4.6110     3.4920     0.3710 hc         1 E7W       0.040700
     33 H5          -4.5860     2.9170     2.7980 hc         1 E7W       0.019700
     34 H6          -5.7520     1.9440     1.9230 hc         1 E7W       0.019700
     35 H7          -2.9530     1.0620     2.7630 hc         1 E7W       0.023700
     36 H8          -4.4590     0.5060     3.4600 hc         1 E7W       0.023700
     37 H10         -3.5610    -1.1440     1.8010 hc         1 E7W       0.039700
     38 H11         -5.1300    -0.5260     1.3210 hc         1 E7W       0.039700
     39 H12         -3.7230    -0.5710    -0.6160 h1         1 E7W       0.087700
     40 H13          2.7950    -3.2760     0.0050 ha         1 E7W       0.090000
     41 H14          2.0890    -5.5910    -0.0550 ha         1 E7W       0.100000
     42 H15         -0.3270    -6.1670    -0.0500 ha         1 E7W       0.099000
     43 H16         -2.0280    -4.3810     0.0180 ha         1 E7W       0.127000
     44 H17          3.0510    -1.3880     0.0440 hn         1 E7W       0.492000
     45 H18          1.1640     1.8370     0.0480 ha         1 E7W       0.168000
     46 H19          2.3950     3.9540     0.0630 ha         1 E7W       0.117000
     47 H20          4.8620     3.9910     0.1090 ha         1 E7W       0.101000
     48 H21          4.9010    -0.2770     0.1350 ha         1 E7W       0.120000
     49 H22          6.9030     2.7970    -0.2700 h1         1 E7W       0.029700
     50 H23          6.8470     1.9460     1.2550 h1         1 E7W       0.029700
     51 H24          7.0490     0.6650    -1.3480 hn         1 E7W       0.392000
     52 H25          8.1470     0.6830    -0.1630 hn         1 E7W       0.392000
     53 O21         -3.8240     1.1240    -2.6640 o          1 E7W      -0.727500
@<TRIPOS>BOND
     1     1    10 1   
     2     1    11 1   
     3     1    29 1   
     4     2     3 1   
     5     2     7 1   
     6     2    10 1   
     7     2    30 1   
     8     3     4 1   
     9     3    31 1   
    10     3    32 1   
    11     4     5 1   
    12     4    33 1   
    13     4    34 1   
    14     5     9 1   
    15     5    35 1   
    16     5    36 1   
    17     6    13 ar  
    18     6    14 ar  
    19     6    18 ar  
    20     7     8 1   
    21     7    53 1   
    22     9    10 1   
    23     9    37 1   
    24     9    38 1   
    25    10    39 1   
    26    11    12 ar  
    27    11    19 ar  
    28    12    13 ar  
    29    13    20 1   
    30    14    15 ar  
    31    14    40 1   
    32    15    16 ar  
    33    15    41 1   
    34    16    17 ar  
    35    16    42 1   
    36    17    18 ar  
    37    17    43 1   
    38    18    19 ar  
    39    20    21 1   
    40    20    44 1   
    41    21    22 ar  
    42    21    26 ar  
    43    22    23 ar  
    44    22    45 1   
    45    23    24 ar  
    46    23    46 1   
    47    24    25 ar  
    48    24    47 1   
    49    25    26 ar  
    50    25    27 1   
    51    26    48 1   
    52    27    28 1   
    53    27    49 1   
    54    27    50 1   
    55    28    51 1   
    56    28    52 1   
@<TRIPOS>SUBSTRUCTURE
     1 E7W         1 TEMP              0 ****  ****    0 ROOT
