@<TRIPOS>MOLECULE
E7X
   54    56     1     0     0
SMALL
No Charge or Current Charge


@<TRIPOS>ATOM
      1 C2           3.7450    -2.1010     2.1270 ca         1 E7X       0.182900
      2 C5           4.3580    -0.7110    -0.0660 ca         1 E7X      -0.098600
      3 C6           5.1430    -1.8110     0.3390 ca         1 E7X       0.450900
      4 C8           3.4840     0.9970    -1.0420 cc         1 E7X       0.412700
      5 N           -3.5500    -0.4310     2.9000 nz         1 E7X      -0.984000
      6 CA          -4.5970    -0.6200     1.7920 c3         1 E7X      -0.059700
      7 C           -5.5990    -1.7950     2.0810 c          1 E7X       0.717000
      8 OXT         -6.7910    -1.5720     1.9350 o          1 E7X      -0.652500
      9 CB          -3.9270    -0.8020     0.4090 c3         1 E7X      -0.096400
     10 CG          -3.1820     0.4550    -0.0970 c3         1 E7X       0.176800
     11 CE          -3.1500    -0.2050    -2.5040 c3         1 E7X       0.175800
     12 C4          -0.5040     1.9300    -0.5230 c5         1 E7X       0.166300
     13 O4           0.3650     0.8640    -0.0820 os         1 E7X      -0.419000
     14 C3           0.5020     3.0290    -0.9800 c5         1 E7X       0.086300
     15 O3          -0.0830     4.3400    -1.1190 oh         1 E7X      -0.714000
     16 C7           1.4870     2.9940     0.2230 c5         1 E7X       0.101300
     17 O2           0.9300     3.7840     1.2850 oh         1 E7X      -0.701000
     18 C1           1.5330     1.4500     0.5420 c5         1 E7X       0.318300
     19 O           -5.1470    -2.8180     2.5760 o          1 E7X      -0.652500
     20 C01         -2.3630    -0.5840    -3.7990 c3         1 E7X       0.170600
     21 N1           4.8400    -2.5120     1.4430 nb         1 E7X      -0.302000
     22 O01         -1.4390    -1.6620    -3.5690 oh         1 E7X      -0.637000
     23 N3           2.9350    -1.0610     1.8120 nb         1 E7X      -0.222000
     24 C10          3.2690    -0.3780     0.6990 ca         1 E7X       0.119500
     25 N6           6.2450    -2.2180    -0.3470 nv         1 E7X      -1.062900
     26 N7           4.5160     0.1410    -1.1640 nd         1 E7X      -0.559100
     27 N9           2.7080     0.7060     0.0860 na         1 E7X      -0.309300
     28 H1           3.4890    -2.6630     3.0240 h5         1 E7X       0.047100
     29 H2           3.2570     1.8170    -1.7130 h5         1 E7X       0.073800
     30 H4          -3.9740    -0.2560     3.8260 hn         1 E7X       0.494667
     31 H6          -5.2120     0.2840     1.7560 hx         1 E7X       0.077700
     32 H8          -3.2310    -1.6480     0.4470 hc         1 E7X       0.098200
     33 H9          -4.7110    -1.0650    -0.3110 hc         1 E7X       0.098200
     34 H10         -3.9160     1.2530    -0.2710 h1         1 E7X       0.012200
     35 H11         -2.5380     0.7870     0.7250 h1         1 E7X       0.012200
     36 H12         -3.8750     0.5750    -2.7760 h1         1 E7X       0.043700
     37 H13         -3.7360    -1.0940    -2.2430 h1         1 E7X       0.043700
     38 H16         -1.0870     2.2860     0.3370 h1         1 E7X       0.066700
     39 H17          1.0110     2.7270    -1.9060 h1         1 E7X       0.058700
     40 H18         -0.3260     4.4650    -2.0680 ho         1 E7X       0.520000
     41 H19          2.4770     3.3810    -0.0580 h1         1 E7X       0.083700
     42 H20          0.3570     4.4280     0.7930 ho         1 E7X       0.521000
     43 H21          1.4870     1.3060     1.6300 h2         1 E7X       0.126700
     44 H22         -3.0900    -0.8810    -4.5660 h1         1 E7X       0.012700
     45 H24          6.6100    -1.5730    -1.0440 hn         1 E7X       0.506500
     46 H25          6.9250    -2.7980     0.1370 hn         1 E7X       0.506500
     47 H7          -1.8350     0.2970    -4.1850 h1         1 E7X       0.012700
     48 H23         -0.9660    -1.8170    -4.4150 ho         1 E7X       0.443000
     49 H5          -2.9660    -1.2720     3.0370 hn         1 E7X       0.494667
     50 C9          -1.4870     1.4390    -1.6330 c3         1 E7X       0.177800
     51 N01         -2.3520     0.2540    -1.3170 n3         1 E7X      -0.718600
     52 H3          -2.8970     0.3510     2.7410 hn         1 E7X       0.494667
     53 H14         -2.1230     2.2900    -1.9120 h1         1 E7X       0.041200
     54 H15         -0.8630     1.2140    -2.5060 h1         1 E7X       0.041200
@<TRIPOS>BOND
     1     1    21 ar  
     2     1    23 ar  
     3     1    28 1   
     4     2     3 ar  
     5     2    24 ar  
     6     2    26 1   
     7     3    21 ar  
     8     3    25 1   
     9     4    26 2   
    10     4    27 1   
    11     4    29 1   
    12     5     6 1   
    13     5    30 1   
    14     5    49 1   
    15     5    52 1   
    16     6     7 1   
    17     6     9 1   
    18     6    31 1   
    19     7     8 1   
    20     7    19 1   
    21     9    10 1   
    22     9    32 1   
    23     9    33 1   
    24    10    34 1   
    25    10    35 1   
    26    10    51 1   
    27    11    20 1   
    28    11    36 1   
    29    11    37 1   
    30    11    51 1   
    31    12    13 1   
    32    12    14 1   
    33    12    38 1   
    34    12    50 1   
    35    13    18 1   
    36    14    15 1   
    37    14    16 1   
    38    14    39 1   
    39    15    40 1   
    40    16    17 1   
    41    16    18 1   
    42    16    41 1   
    43    17    42 1   
    44    18    27 1   
    45    18    43 1   
    46    20    22 1   
    47    20    44 1   
    48    20    47 1   
    49    22    48 1   
    50    23    24 ar  
    51    24    27 1   
    52    25    45 1   
    53    25    46 1   
    54    50    51 1   
    55    50    53 1   
    56    50    54 1   
@<TRIPOS>SUBSTRUCTURE
     1 E7X         1 TEMP              0 ****  ****    0 ROOT
