@<TRIPOS>MOLECULE
E7X
   54    56     1     0     0
SMALL
bcc


@<TRIPOS>ATOM
      1 C2           5.6930    -0.6320     1.2610 ca         1 E7X       0.708900
      2 C5           4.2980    -0.8550    -0.9790 ca         1 E7X      -0.229200
      3 C6           5.6730    -1.1570    -0.9800 ca         1 E7X       0.779200
      4 C8           2.2500    -0.4990    -1.3400 cc         1 E7X       0.412700
      5 N           -5.3130     1.0230     1.9990 nz         1 E7X      -0.846600
      6 CA          -5.5000     0.0860     0.8530 c3         1 E7X      -0.031500
      7 C           -6.3220    -1.1190     1.3890 c          1 E7X       0.927600
      8 OXT         -6.4020    -2.0990     0.6420 o          1 E7X      -0.757800
      9 CB          -4.1770    -0.2860     0.2150 c3         1 E7X      -0.096400
     10 CG          -3.4330     0.9090    -0.3740 c3         1 E7X       0.176800
     11 CE          -2.5720     0.0620    -2.4660 c3         1 E7X       0.175800
     12 C4          -0.4180     1.3870     0.2540 c5         1 E7X       0.143100
     13 O4           0.1870     0.1060     0.4290 os         1 E7X      -0.372600
     14 C3           0.7410     2.3760     0.3390 c5         1 E7X       0.063100
     15 O3           0.2830     3.6330     0.7500 oh         1 E7X      -0.591800
     16 C7           1.6610     1.6890     1.3530 c5         1 E7X       0.078100
     17 O2           1.1830     1.8570     2.6600 oh         1 E7X      -0.578800
     18 C1           1.4640     0.2220     0.9760 c5         1 E7X       0.265800
     19 O           -6.8440    -0.9490     2.5110 o          1 E7X      -0.757800
     20 C01         -1.6450    -1.0130    -2.9930 c3         1 E7X       0.147400
     21 N1           6.3430    -1.0330     0.1710 nb         1 E7X      -0.828000
     22 O01         -1.8170    -2.1900    -2.2420 oh         1 E7X      -0.574800
     23 N3           4.4160    -0.3170     1.3870 nb         1 E7X      -0.748000
     24 C10          3.7630    -0.4450     0.2320 ca         1 E7X       0.447800
     25 N6           6.3210    -1.5680    -2.0720 nv         1 E7X      -0.952500
     26 N7           3.3330    -0.8820    -1.9500 nd         1 E7X      -0.559100
     27 N9           2.4440    -0.2120    -0.0180 na         1 E7X      -0.280000
     28 H1           6.2950    -0.5560     2.1600 h5         1 E7X       0.047100
     29 H2           1.2790    -0.4230    -1.8030 h5         1 E7X       0.073800
     30 H4          -6.0370     0.7480     2.6840 hn         1 E7X       0.439467
     31 H6          -6.1230     0.6200     0.1300 hx         1 E7X       0.077700
     32 H8          -3.5330    -0.7920     0.9410 hc         1 E7X       0.098200
     33 H9          -4.3900    -1.0130    -0.5680 hc         1 E7X       0.098200
     34 H10         -4.1200     1.5090    -0.9950 h1         1 E7X       0.012200
     35 H11         -3.1170     1.5730     0.4350 h1         1 E7X       0.012200
     36 H12         -2.5630     0.9050    -3.1730 h1         1 E7X       0.043700
     37 H13         -3.5900    -0.3340    -2.4860 h1         1 E7X       0.043700
     38 H16         -1.1050     1.5690     1.0910 h1         1 E7X       0.066700
     39 H17          1.2520     2.4300    -0.6330 h1         1 E7X       0.058700
     40 H18          0.9480     4.2940     0.5300 ho         1 E7X       0.421000
     41 H19          2.7080     2.0030     1.2590 h1         1 E7X       0.083700
     42 H20          0.8570     2.7620     2.7380 ho         1 E7X       0.422000
     43 H21          1.5730    -0.4340     1.8440 h2         1 E7X       0.126700
     44 H22         -1.8850    -1.1670    -4.0540 h1         1 E7X       0.012700
     45 H24          5.8590    -1.6090    -2.9630 hn         1 E7X       0.451300
     46 H25          7.3160    -1.7120    -2.0450 hn         1 E7X       0.451300
     47 H7          -0.6040    -0.6620    -2.9650 h1         1 E7X       0.012700
     48 H23         -1.2340    -2.8620    -2.6040 ho         1 E7X       0.404000
     49 H5          -4.4100     0.9080     2.4560 hn         1 E7X       0.439467
     50 C9          -1.1720     1.4410    -1.0580 c3         1 E7X       0.177800
     51 N01         -2.2590     0.4860    -1.1120 n3         1 E7X      -0.718600
     52 H3          -5.4180     2.0050     1.7550 hn         1 E7X       0.439467
     53 H14         -1.5130     2.4770    -1.2160 h1         1 E7X       0.041200
     54 H15         -0.4680     1.2360    -1.8690 h1         1 E7X       0.041200
@<TRIPOS>BOND
     1     1    21 ar  
     2     1    23 ar  
     3     1    28 1   
     4     2     3 ar  
     5     2    24 ar  
     6     2    26 1   
     7     3    21 ar  
     8     3    25 1   
     9     4    26 2   
    10     4    27 1   
    11     4    29 1   
    12     5     6 1   
    13     5    30 1   
    14     5    49 1   
    15     5    52 1   
    16     6     7 1   
    17     6     9 1   
    18     6    31 1   
    19     7     8 1   
    20     7    19 1   
    21     9    10 1   
    22     9    32 1   
    23     9    33 1   
    24    10    34 1   
    25    10    35 1   
    26    10    51 1   
    27    11    20 1   
    28    11    36 1   
    29    11    37 1   
    30    11    51 1   
    31    12    13 1   
    32    12    14 1   
    33    12    38 1   
    34    12    50 1   
    35    13    18 1   
    36    14    15 1   
    37    14    16 1   
    38    14    39 1   
    39    15    40 1   
    40    16    17 1   
    41    16    18 1   
    42    16    41 1   
    43    17    42 1   
    44    18    27 1   
    45    18    43 1   
    46    20    22 1   
    47    20    44 1   
    48    20    47 1   
    49    22    48 1   
    50    23    24 ar  
    51    24    27 1   
    52    25    45 1   
    53    25    46 1   
    54    50    51 1   
    55    50    53 1   
    56    50    54 1   
@<TRIPOS>SUBSTRUCTURE
     1 E7X         1 TEMP              0 ****  ****    0 ROOT
