@<TRIPOS>MOLECULE
E7Y
   62    61     1     0     0
SMALL
No Charge or Current Charge


@<TRIPOS>ATOM
      1 C10         -6.1470     0.8380     0.4210 c          1 E7Y       0.599100
      2 C11         -1.8030    -3.0690    -0.0700 c2         1 E7Y      -0.207200
      3 C12         -0.9500    -2.0840     0.7100 c3         1 E7Y      -0.014000
      4 C13          0.1510    -2.8020     1.4670 c2         1 E7Y      -0.214200
      5 C15          1.8650    -0.9000     1.5400 c3         1 E7Y      -0.012000
      6 C16          2.6930    -0.3890     2.7060 c2         1 E7Y      -0.214200
      7 C19          5.1740     2.2260     1.6690 c2         1 E7Y      -0.213200
      8 C21          7.4830     1.6250     0.7280 c3         1 E7Y      -0.043200
      9 C22          7.4210     1.6980    -0.8120 c3         1 E7Y      -0.073400
     10 C23          8.4470     0.7760    -1.5080 c3         1 E7Y      -0.076400
     11 C25          9.4040    -0.0630    -3.7450 c3         1 E7Y      -0.088100
     12 C18          4.4450     0.9260     1.3810 c3         1 E7Y      -0.012000
     13 C20          6.4540     2.5270     1.3840 c2         1 E7Y      -0.216200
     14 N01         -7.4560     0.7710     0.0050 ns         1 E7Y      -0.505900
     15 O02         -5.4630     1.8400     0.2680 o          1 E7Y      -0.612100
     16 C03         -8.1500     1.8280    -0.7450 c3         1 E7Y       0.099000
     17 C04         -7.7310     1.8980    -2.2360 c3         1 E7Y       0.140600
     18 O05         -8.0390     0.6660    -2.9110 oh         1 E7Y      -0.670000
     19 C06         -3.1370    -3.2330    -0.0010 c2         1 E7Y      -0.219200
     20 C07         -4.1090    -2.4900     0.8960 c3         1 E7Y      -0.044200
     21 C08         -4.6450    -1.2070     0.2300 c3         1 E7Y      -0.064400
     22 C09         -5.6250    -0.4170     1.1290 c3         1 E7Y      -0.158400
     23 C14          1.3510    -2.3020     1.8100 c2         1 E7Y      -0.213200
     24 C17          3.7960     0.3780     2.6380 c2         1 E7Y      -0.213200
     25 C24          8.3810     0.8550    -3.0490 c3         1 E7Y      -0.075400
     26 H1          -1.2260    -3.6820    -0.7660 ha         1 E7Y       0.169000
     27 H2          -0.5200    -1.3560     0.0120 hc         1 E7Y       0.052200
     28 H3          -1.5550    -1.5010     1.4140 hc         1 E7Y       0.052200
     29 H4          -0.0960    -3.8320     1.7360 ha         1 E7Y       0.168000
     30 H5           1.0320    -0.2090     1.3640 hc         1 E7Y       0.051200
     31 H6           2.4590    -0.9070     0.6190 hc         1 E7Y       0.051200
     32 H7           2.3220    -0.7070     3.6830 ha         1 E7Y       0.169000
     33 H8           4.5430     2.9800     2.1460 ha         1 E7Y       0.168000
     34 H9           7.3450     0.5850     1.0460 hc         1 E7Y       0.044200
     35 H10          8.4890     1.9090     1.0630 hc         1 E7Y       0.044200
     36 H11          6.4110     1.4250    -1.1420 hc         1 E7Y       0.039200
     37 H12          7.5920     2.7340    -1.1280 hc         1 E7Y       0.039200
     38 H13          9.4570     1.0460    -1.1760 hc         1 E7Y       0.036700
     39 H14          8.2720    -0.2600    -1.1920 hc         1 E7Y       0.036700
     40 H15          9.3170     0.0260    -4.8350 hc         1 E7Y       0.031367
     41 H16         10.4270     0.2080    -3.4590 hc         1 E7Y       0.031367
     42 H17          9.2340    -1.1120    -3.4720 hc         1 E7Y       0.031367
     43 H18          3.6870     1.1070     0.6100 hc         1 E7Y       0.050200
     44 H19          5.1220     0.1720     0.9650 hc         1 E7Y       0.050200
     45 H20          6.8420     3.5150     1.6420 ha         1 E7Y       0.165000
     46 H21         -7.9410    -0.1040     0.1630 hn         1 E7Y       0.322500
     47 H22         -9.2320     1.6550    -0.6820 h1         1 E7Y       0.063200
     48 H23         -7.9430     2.7960    -0.2700 h1         1 E7Y       0.063200
     49 H24         -8.2620     2.7340    -2.7110 h1         1 E7Y       0.029700
     50 H25         -6.6560     2.1100    -2.2990 h1         1 E7Y       0.029700
     51 H26         -7.7350     0.7650    -3.8420 ho         1 E7Y       0.447000
     52 H27         -3.6160    -3.9810    -0.6370 ha         1 E7Y       0.166000
     53 H28         -4.9510    -3.1470     1.1490 hc         1 E7Y       0.042200
     54 H29         -3.6360    -2.2310     1.8510 hc         1 E7Y       0.042200
     55 H30         -3.7980    -0.5610    -0.0370 hc         1 E7Y       0.055700
     56 H31         -5.1490    -1.4730    -0.7080 hc         1 E7Y       0.055700
     57 H32         -5.0930    -0.1120     2.0380 hc         1 E7Y       0.055200
     58 H33         -6.4630    -1.0740     1.3920 hc         1 E7Y       0.055200
     59 H34          2.0610    -2.9350     2.3460 ha         1 E7Y       0.168000
     60 H35          4.3050     0.6660     3.5610 ha         1 E7Y       0.169000
     61 H36          7.3720     0.5830    -3.3840 hc         1 E7Y       0.036700
     62 H37          8.5560     1.8890    -3.3680 hc         1 E7Y       0.036700
@<TRIPOS>BOND
     1     1    14 1   
     2     1    15 2   
     3     1    22 1   
     4     2     3 1   
     5     2    19 2   
     6     2    26 1   
     7     3     4 1   
     8     3    27 1   
     9     3    28 1   
    10     4    23 2   
    11     4    29 1   
    12     5     6 1   
    13     5    23 1   
    14     5    30 1   
    15     5    31 1   
    16     6    24 2   
    17     6    32 1   
    18     7    12 1   
    19     7    13 2   
    20     7    33 1   
    21     8     9 1   
    22     8    13 1   
    23     8    34 1   
    24     8    35 1   
    25     9    10 1   
    26     9    36 1   
    27     9    37 1   
    28    10    25 1   
    29    10    38 1   
    30    10    39 1   
    31    11    25 1   
    32    11    40 1   
    33    11    41 1   
    34    11    42 1   
    35    12    24 1   
    36    12    43 1   
    37    12    44 1   
    38    13    45 1   
    39    14    16 1   
    40    14    46 1   
    41    16    17 1   
    42    16    47 1   
    43    16    48 1   
    44    17    18 1   
    45    17    49 1   
    46    17    50 1   
    47    18    51 1   
    48    19    20 1   
    49    19    52 1   
    50    20    21 1   
    51    20    53 1   
    52    20    54 1   
    53    21    22 1   
    54    21    55 1   
    55    21    56 1   
    56    22    57 1   
    57    22    58 1   
    58    23    59 1   
    59    24    60 1   
    60    25    61 1   
    61    25    62 1   
@<TRIPOS>SUBSTRUCTURE
     1 E7Y         1 TEMP              0 ****  ****    0 ROOT
