@<TRIPOS>MOLECULE
E7Y
   62    61     1     0     0
SMALL
bcc


@<TRIPOS>ATOM
      1 C10         -7.3880     0.4460     0.8420 c          1 E7Y       0.666100
      2 C11         -2.1420    -1.0160    -1.5590 c2         1 E7Y      -0.157200
      3 C12         -1.3290    -0.6100    -0.3620 c3         1 E7Y      -0.014000
      4 C13         -0.1790    -1.5540    -0.1600 c2         1 E7Y      -0.164200
      5 C15          1.7550     0.0390    -0.5890 c3         1 E7Y      -0.012000
      6 C16          2.4930     0.5610     0.6110 c2         1 E7Y      -0.164200
      7 C19          5.5550     1.6520    -0.6890 c2         1 E7Y      -0.163200
      8 C21          7.8810     1.2700     0.2660 c3         1 E7Y      -0.043200
      9 C22          9.1120     1.0420    -0.6120 c3         1 E7Y      -0.073400
     10 C23         10.2200     0.2860     0.1110 c3         1 E7Y      -0.076400
     11 C25         12.5520    -0.7010    -0.0210 c3         1 E7Y      -0.088100
     12 C18          4.8800     0.3850    -0.2460 c3         1 E7Y      -0.012000
     13 C20          6.8110     2.0290    -0.4530 c2         1 E7Y      -0.166200
     14 N01         -8.6390     0.0440     1.1170 ns         1 E7Y      -0.572900
     15 O02         -7.0870     1.6190     0.6580 o          1 E7Y      -0.612100
     16 C03         -9.7700     0.9310     1.2640 c3         1 E7Y       0.099000
     17 C04        -10.9960     0.3850     0.5660 c3         1 E7Y       0.117400
     18 O05        -11.3310    -0.8540     1.1520 oh         1 E7Y      -0.607800
     19 C06         -3.4010    -1.4490    -1.5670 c2         1 E7Y      -0.169200
     20 C07         -4.3190    -1.5920    -0.3940 c3         1 E7Y      -0.044200
     21 C08         -5.3930    -0.5040    -0.3850 c3         1 E7Y      -0.064400
     22 C09         -6.3550    -0.6590     0.7870 c3         1 E7Y      -0.158400
     23 C14          1.1210    -1.2860    -0.2750 c2         1 E7Y      -0.163200
     24 C17          3.8090     0.6890     0.7610 c2         1 E7Y      -0.163200
     25 C24         11.4600     0.0700    -0.7480 c3         1 E7Y      -0.075400
     26 H1          -1.6170    -0.9550    -2.5080 ha         1 E7Y       0.119000
     27 H2          -0.9690     0.4120    -0.5040 hc         1 E7Y       0.052200
     28 H3          -1.9480    -0.5970     0.5380 hc         1 E7Y       0.052200
     29 H4          -0.4650    -2.5720     0.0870 ha         1 E7Y       0.118000
     30 H5           1.0000     0.7690    -0.8900 hc         1 E7Y       0.051200
     31 H6           2.4310    -0.0760    -1.4400 hc         1 E7Y       0.051200
     32 H7           1.8600     0.8370     1.4500 ha         1 E7Y       0.119000
     33 H8           4.9160     2.3370    -1.2400 ha         1 E7Y       0.118000
     34 H9           7.5130     0.3090     0.6300 hc         1 E7Y       0.044200
     35 H10          8.1870     1.8370     1.1540 hc         1 E7Y       0.044200
     36 H11          8.8180     0.4880    -1.5100 hc         1 E7Y       0.039200
     37 H12          9.4950     2.0070    -0.9610 hc         1 E7Y       0.039200
     38 H13         10.4990     0.8310     1.0200 hc         1 E7Y       0.036700
     39 H14          9.8370    -0.6840     0.4460 hc         1 E7Y       0.036700
     40 H15         13.4380    -0.8290    -0.6430 hc         1 E7Y       0.031367
     41 H16         12.8600    -0.1810     0.8890 hc         1 E7Y       0.031367
     42 H17         12.2050    -1.6940     0.2710 hc         1 E7Y       0.031367
     43 H18          4.4620    -0.1260    -1.1170 hc         1 E7Y       0.050200
     44 H19          5.6020    -0.3040     0.1990 hc         1 E7Y       0.050200
     45 H20          7.1200     2.9970    -0.8400 ha         1 E7Y       0.115000
     46 H21         -8.8020    -0.9360     1.2840 hn         1 E7Y       0.322500
     47 H22         -9.9910     1.1000     2.3230 h1         1 E7Y       0.063200
     48 H23         -9.5180     1.8970     0.8300 h1         1 E7Y       0.063200
     49 H24        -11.8060     1.1170     0.6700 h1         1 E7Y       0.029700
     50 H25        -10.7860     0.2820    -0.5050 h1         1 E7Y       0.029700
     51 H26        -12.0100    -1.2720     0.6160 ho         1 E7Y       0.408000
     52 H27         -3.8360    -1.7010    -2.5310 ha         1 E7Y       0.116000
     53 H28         -4.8020    -2.5730    -0.4320 hc         1 E7Y       0.042200
     54 H29         -3.7640    -1.5600     0.5470 hc         1 E7Y       0.042200
     55 H30         -4.9110     0.4740    -0.3380 hc         1 E7Y       0.055700
     56 H31         -5.9510    -0.5320    -1.3250 hc         1 E7Y       0.055700
     57 H32         -5.7920    -0.6280     1.7260 hc         1 E7Y       0.055200
     58 H33         -6.8350    -1.6410     0.7520 hc         1 E7Y       0.055200
     59 H34          1.8220    -2.0960    -0.0980 ha         1 E7Y       0.118000
     60 H35          4.1740     1.0800     1.7070 ha         1 E7Y       0.119000
     61 H36         11.1780    -0.4640    -1.6610 hc         1 E7Y       0.036700
     62 H37         11.8480     1.0400    -1.0730 hc         1 E7Y       0.036700
@<TRIPOS>BOND
     1     1    14 1   
     2     1    15 2   
     3     1    22 1   
     4     2     3 1   
     5     2    19 2   
     6     2    26 1   
     7     3     4 1   
     8     3    27 1   
     9     3    28 1   
    10     4    23 2   
    11     4    29 1   
    12     5     6 1   
    13     5    23 1   
    14     5    30 1   
    15     5    31 1   
    16     6    24 2   
    17     6    32 1   
    18     7    12 1   
    19     7    13 2   
    20     7    33 1   
    21     8     9 1   
    22     8    13 1   
    23     8    34 1   
    24     8    35 1   
    25     9    10 1   
    26     9    36 1   
    27     9    37 1   
    28    10    25 1   
    29    10    38 1   
    30    10    39 1   
    31    11    25 1   
    32    11    40 1   
    33    11    41 1   
    34    11    42 1   
    35    12    24 1   
    36    12    43 1   
    37    12    44 1   
    38    13    45 1   
    39    14    16 1   
    40    14    46 1   
    41    16    17 1   
    42    16    47 1   
    43    16    48 1   
    44    17    18 1   
    45    17    49 1   
    46    17    50 1   
    47    18    51 1   
    48    19    20 1   
    49    19    52 1   
    50    20    21 1   
    51    20    53 1   
    52    20    54 1   
    53    21    22 1   
    54    21    55 1   
    55    21    56 1   
    56    22    57 1   
    57    22    58 1   
    58    23    59 1   
    59    24    60 1   
    60    25    61 1   
    61    25    62 1   
@<TRIPOS>SUBSTRUCTURE
     1 E7Y         1 TEMP              0 ****  ****    0 ROOT
