@<TRIPOS>MOLECULE
E7Z
   18    18     1     0     0
SMALL
abcg2


@<TRIPOS>ATOM
      1 C4          23.5580     5.5340    13.9890 c          1 E7Z       0.538500
      2 C5          22.8800     6.7800    13.9900 cc         1 E7Z      -0.394200
      3 C6          22.8870     7.6110    12.8930 cd         1 E7Z       0.109800
      4 C7          22.1370     8.9440    12.9100 c          1 E7Z       0.707200
      5 N           23.5580     7.2660    11.7680 na         1 E7Z      -0.457200
      6 C1          23.5060     8.1120    10.5690 c3         1 E7Z       0.209100
      7 C2          24.2340     6.0730    11.6990 cc         1 E7Z      -0.052000
      8 C3          24.2500     5.2230    12.7550 cd         1 E7Z      -0.067100
      9 O1          23.6130     4.7010    14.9360 o          1 E7Z      -0.691100
     10 O2          22.8030     9.9410    13.2640 o          1 E7Z      -0.691500
     11 O3          20.9340     8.8900    12.5750 o          1 E7Z      -0.691500
     12 O4          24.9130     4.0400    12.7220 oh         1 E7Z      -0.559100
     13 H1          22.3380     7.0850    14.8760 ha         1 E7Z       0.209000
     14 H2          23.5600     9.1570    10.8600 h1         1 E7Z       0.052033
     15 H3          24.3560     7.8740     9.9360 h1         1 E7Z       0.052033
     16 H4          22.5820     7.9320    10.0200 h1         1 E7Z       0.052033
     17 H5          24.7440     5.8580    10.7720 h4         1 E7Z       0.190000
     18 H8          24.7540     3.6580    13.6090 ho         1 E7Z       0.484000
@<TRIPOS>BOND
     1     1     2 1   
     2     1     8 1   
     3     1     9 2   
     4     2     3 2   
     5     2    13 1   
     6     3     4 1   
     7     3     5 1   
     8     4    10 1   
     9     4    11 1   
    10     5     6 1   
    11     5     7 1   
    12     6    14 1   
    13     6    15 1   
    14     6    16 1   
    15     7     8 2   
    16     7    17 1   
    17     8    12 1   
    18    12    18 1   
@<TRIPOS>SUBSTRUCTURE
     1 E7Z         1 TEMP              0 ****  ****    0 ROOT
