@<TRIPOS>MOLECULE
E7Z
   18    18     1     0     0
SMALL
No Charge or Current Charge


@<TRIPOS>ATOM
      1 C4          23.4200     5.4560    13.8990 c          1 E7Z       0.538500
      2 C5          22.7020     6.7010    13.8640 cc         1 E7Z      -0.394200
      3 C6          22.7650     7.6380    12.8400 cd         1 E7Z       0.109800
      4 C7          21.9220     8.9230    12.9740 c          1 E7Z       0.707200
      5 N           23.6410     7.2700    11.7540 na         1 E7Z      -0.457200
      6 C1          23.7820     8.2040    10.6050 c3         1 E7Z       0.209100
      7 C2          24.3980     6.0730    11.6780 cc         1 E7Z      -0.052000
      8 C3          24.2780     5.2000    12.7330 cd         1 E7Z      -0.067100
      9 O1          23.3240     4.6660    14.8340 o          1 E7Z      -0.691100
     10 O2          21.9450     9.7770    12.0970 o          1 E7Z      -0.691500
     11 O3          21.2270     9.0720    13.9750 o          1 E7Z      -0.691500
     12 O4          24.9500     4.0180    12.7820 oh         1 E7Z      -0.559100
     13 H1          22.0790     6.8640    14.7340 ha         1 E7Z       0.209000
     14 H2          24.1780     9.1680    10.9500 h1         1 E7Z       0.052033
     15 H3          24.4750     7.8010     9.8550 h1         1 E7Z       0.052033
     16 H4          22.8090     8.3550    10.1220 h1         1 E7Z       0.052033
     17 H5          25.0280     5.8960    10.8110 h4         1 E7Z       0.190000
     18 H8          24.6830     3.5980    13.6360 ho         1 E7Z       0.484000
@<TRIPOS>BOND
     1     1     2 1   
     2     1     8 1   
     3     1     9 2   
     4     2     3 2   
     5     2    13 1   
     6     3     4 1   
     7     3     5 1   
     8     4    10 1   
     9     4    11 1   
    10     5     6 1   
    11     5     7 1   
    12     6    14 1   
    13     6    15 1   
    14     6    16 1   
    15     7     8 2   
    16     7    17 1   
    17     8    12 1   
    18    12    18 1   
@<TRIPOS>SUBSTRUCTURE
     1 E7Z         1 TEMP              0 ****  ****    0 ROOT
