@<TRIPOS>MOLECULE
E80
   53    54     1     0     0
SMALL
No Charge or Current Charge


@<TRIPOS>ATOM
      1 CAA         24.1200    20.1120     3.5550 ca         1 E80      -0.130300
      2 CAB         23.4070    19.2670     2.6660 ca         1 E80       0.164100
      3 CAC         22.0820    18.8880     2.9720 ca         1 E80      -0.222000
      4 CAD         21.4500    19.3380     4.1410 ca         1 E80       0.348000
      5 CAE         22.1630    20.1730     5.0180 ca         1 E80      -0.163000
      6 CAF         23.4810    20.5560     4.7300 ca         1 E80      -0.075000
      7 CAG         25.5680    20.5680     3.2980 c3         1 E80       0.007600
      8 CAH         26.5710    19.3950     3.3680 c3         1 E80      -0.080600
      9 CAI         25.7190    21.3960     2.0000 c3         1 E80      -0.080600
     10 CAJ         23.3390    18.0510     0.5100 c3         1 E80       0.162600
     11 CAK         24.3050    17.8120    -0.6770 c3         1 E80      -0.062700
     12 CAL         25.5390    16.9670    -0.2760 c3         1 E80      -0.087100
     13 CAM         23.5650    17.1740    -1.8740 c3         1 E80      -0.087100
     14 CAN         19.7760    18.5030     5.8040 c3         1 E80       0.248800
     15 CAO         20.5730    17.2740     6.2810 c3         1 E80      -0.116100
     16 CAP         19.1530    18.9270     3.4070 ca         1 E80       0.572900
     17 CAQ         19.1370    19.8980     2.3910 ca         1 E80      -0.242000
     18 CAR         18.1620    19.8310     1.3860 ca         1 E80      -0.033000
     19 CAS         17.2260    18.7800     1.4350 ca         1 E80      -0.209600
     20 CAT         17.3200    17.8560     2.4890 ca         1 E80       0.375900
     21 CAX         16.1460    18.6290     0.4030 c          1 E80       0.721600
     22 NAV         20.1230    18.9420     4.4250 nh         1 E80      -0.836100
     23 NAW         18.2630    17.9230     3.4580 nb         1 E80      -0.772000
     24 OAU         24.0250    18.8250     1.5110 os         1 E80      -0.356100
     25 OAY         15.3680    17.6930     0.5030 o          1 E80      -0.722000
     26 OAZ         16.0870    19.4500    -0.5000 o          1 E80      -0.722000
     27 H1          21.5280    18.2290     2.3140 ha         1 E80       0.134000
     28 H2          21.6950    20.5440     5.9240 ha         1 E80       0.121000
     29 H3          24.0050    21.2050     5.4280 ha         1 E80       0.102000
     30 H4          25.8580    21.2480     4.1090 hc         1 E80       0.031700
     31 H5          26.4690    18.8610     4.3200 hc         1 E80       0.032200
     32 H6          26.4110    18.6800     2.5550 hc         1 E80       0.032200
     33 H7          27.6010    19.7650     3.2960 hc         1 E80       0.032200
     34 H8          24.9840    22.2090     1.9760 hc         1 E80       0.032200
     35 H9          26.7190    21.8440     1.9480 hc         1 E80       0.032200
     36 H10         25.5830    20.7810     1.1050 hc         1 E80       0.032200
     37 H11         22.4560    18.5950     0.1500 h1         1 E80       0.042200
     38 H12         23.0110    17.0860     0.9180 h1         1 E80       0.042200
     39 H13         24.6680    18.7930    -1.0070 hc         1 E80       0.056700
     40 H14         26.1190    17.4660     0.5090 hc         1 E80       0.034867
     41 H15         25.2340    15.9820     0.0950 hc         1 E80       0.034867
     42 H16         26.2030    16.8190    -1.1370 hc         1 E80       0.034867
     43 H17         22.7240    17.8040    -2.1910 hc         1 E80       0.034867
     44 H18         24.2400    17.0580    -2.7310 hc         1 E80       0.034867
     45 H19         23.1720    16.1850    -1.6090 hc         1 E80       0.034867
     46 H20         19.9400    19.3280     6.5090 h1         1 E80       0.048200
     47 H21         18.7060    18.2680     5.8880 h1         1 E80       0.048200
     48 H22         20.2580    16.9880     7.2910 hc         1 E80       0.035700
     49 H23         20.4040    16.4220     5.6120 hc         1 E80       0.035700
     50 H24         21.6480    17.4890     6.3070 hc         1 E80       0.035700
     51 H25         19.8690    20.7000     2.3840 ha         1 E80       0.105000
     52 H26         18.1370    20.5780     0.5940 ha         1 E80       0.129000
     53 H27         16.6220    17.0230     2.5760 h4         1 E80       0.029100
@<TRIPOS>BOND
     1     1     2 ar  
     2     1     6 ar  
     3     1     7 1   
     4     2     3 ar  
     5     2    24 1   
     6     3     4 ar  
     7     3    27 1   
     8     4     5 ar  
     9     4    22 1   
    10     5     6 ar  
    11     5    28 1   
    12     6    29 1   
    13     7     8 1   
    14     7     9 1   
    15     7    30 1   
    16     8    31 1   
    17     8    32 1   
    18     8    33 1   
    19     9    34 1   
    20     9    35 1   
    21     9    36 1   
    22    10    11 1   
    23    10    24 1   
    24    10    37 1   
    25    10    38 1   
    26    11    12 1   
    27    11    13 1   
    28    11    39 1   
    29    12    40 1   
    30    12    41 1   
    31    12    42 1   
    32    13    43 1   
    33    13    44 1   
    34    13    45 1   
    35    14    15 1   
    36    14    22 1   
    37    14    46 1   
    38    14    47 1   
    39    15    48 1   
    40    15    49 1   
    41    15    50 1   
    42    16    17 ar  
    43    16    22 1   
    44    16    23 ar  
    45    17    18 ar  
    46    17    51 1   
    47    18    19 ar  
    48    18    52 1   
    49    19    20 ar  
    50    19    21 1   
    51    20    23 ar  
    52    20    53 1   
    53    21    25 1   
    54    21    26 1   
@<TRIPOS>SUBSTRUCTURE
     1 E80         1 TEMP              0 ****  ****    0 ROOT
