@<TRIPOS>MOLECULE
E80
   53    54     1     0     0
SMALL
abcg2


@<TRIPOS>ATOM
      1 CAA         24.0840    20.2730     3.4770 ca         1 E80      -0.130300
      2 CAB         23.4340    19.3220     2.6690 ca         1 E80       0.164100
      3 CAC         22.1530    18.8810     2.9880 ca         1 E80      -0.222000
      4 CAD         21.4710    19.4040     4.0850 ca         1 E80       0.348000
      5 CAE         22.0910    20.3490     4.8840 ca         1 E80      -0.163000
      6 CAF         23.3840    20.7550     4.5750 ca         1 E80      -0.075000
      7 CAG         25.4860    20.7820     3.2180 c3         1 E80       0.007600
      8 CAH         26.5520    19.6950     3.3710 c3         1 E80      -0.080600
      9 CAI         25.6330    21.5260     1.8890 c3         1 E80      -0.080600
     10 CAJ         23.4740    17.9770     0.6960 c3         1 E80       0.162600
     11 CAK         24.4030    17.6970    -0.4720 c3         1 E80      -0.062700
     12 CAL         25.7040    17.0340    -0.0310 c3         1 E80      -0.087100
     13 CAM         23.6660    16.8230    -1.4820 c3         1 E80      -0.087100
     14 CAN         20.0320    18.1310     5.6000 c3         1 E80       0.248800
     15 CAO         20.4060    16.6730     5.3830 c3         1 E80      -0.116100
     16 CAP         19.1620    18.9870     3.4660 ca         1 E80       0.572900
     17 CAQ         19.2410    19.8140     2.3280 ca         1 E80      -0.242000
     18 CAR         18.1920    19.8100     1.4390 ca         1 E80      -0.033000
     19 CAS         17.0620    19.0180     1.6630 ca         1 E80      -0.209600
     20 CAT         17.0780    18.2720     2.8300 ca         1 E80       0.375900
     21 CAX         15.8990    18.9740     0.6900 c          1 E80       0.721600
     22 NAV         20.1690    18.9480     4.4000 nh         1 E80      -0.836100
     23 NAW         18.0830    18.2440     3.7010 nb         1 E80      -0.772000
     24 OAU         24.1120    18.8610     1.6010 os         1 E80      -0.356100
     25 OAY         14.9270    18.2610     1.0100 o          1 E80      -0.722000
     26 OAZ         16.0230    19.6540    -0.3480 o          1 E80      -0.722000
     27 H1          21.6600    18.1310     2.3840 ha         1 E80       0.134000
     28 H2          21.5740    20.7680     5.7380 ha         1 E80       0.121000
     29 H3          23.8630    21.4920     5.2090 ha         1 E80       0.102000
     30 H4          25.6770    21.5160     4.0060 hc         1 E80       0.031700
     31 H5          26.4680    19.1930     4.3350 hc         1 E80       0.032200
     32 H6          26.4800    18.9410     2.5890 hc         1 E80       0.032200
     33 H7          27.5480    20.1370     3.3140 hc         1 E80       0.032200
     34 H8          24.8710    22.3000     1.7820 hc         1 E80       0.032200
     35 H9          26.6080    22.0150     1.8430 hc         1 E80       0.032200
     36 H10         25.5590    20.8580     1.0320 hc         1 E80       0.032200
     37 H11         22.5410    18.4240     0.3300 h1         1 E80       0.042200
     38 H12         23.2150    17.0350     1.1970 h1         1 E80       0.042200
     39 H13         24.6390    18.6520    -0.9540 hc         1 E80       0.056700
     40 H14         26.2820    17.6660     0.6430 hc         1 E80       0.034867
     41 H15         25.5040    16.0900     0.4810 hc         1 E80       0.034867
     42 H16         26.3330    16.8130    -0.8940 hc         1 E80       0.034867
     43 H17         22.7410    17.2920    -1.8220 hc         1 E80       0.034867
     44 H18         24.2860    16.6380    -2.3600 hc         1 E80       0.034867
     45 H19         23.4100    15.8530    -1.0490 hc         1 E80       0.034867
     46 H20         20.6720    18.5680     6.3670 h1         1 E80       0.048200
     47 H21         19.0090    18.2100     5.9610 h1         1 E80       0.048200
     48 H22         20.3020    16.1160     6.3150 hc         1 E80       0.035700
     49 H23         19.7600    16.2080     4.6390 hc         1 E80       0.035700
     50 H24         21.4400    16.5710     5.0510 hc         1 E80       0.035700
     51 H25         20.1010    20.4440     2.1520 ha         1 E80       0.105000
     52 H26         18.2390    20.4370     0.5570 ha         1 E80       0.129000
     53 H27         16.2290    17.6450     3.0790 h4         1 E80       0.029100
@<TRIPOS>BOND
     1     1     2 ar  
     2     1     6 ar  
     3     1     7 1   
     4     2     3 ar  
     5     2    24 1   
     6     3     4 ar  
     7     3    27 1   
     8     4     5 ar  
     9     4    22 1   
    10     5     6 ar  
    11     5    28 1   
    12     6    29 1   
    13     7     8 1   
    14     7     9 1   
    15     7    30 1   
    16     8    31 1   
    17     8    32 1   
    18     8    33 1   
    19     9    34 1   
    20     9    35 1   
    21     9    36 1   
    22    10    11 1   
    23    10    24 1   
    24    10    37 1   
    25    10    38 1   
    26    11    12 1   
    27    11    13 1   
    28    11    39 1   
    29    12    40 1   
    30    12    41 1   
    31    12    42 1   
    32    13    43 1   
    33    13    44 1   
    34    13    45 1   
    35    14    15 1   
    36    14    22 1   
    37    14    46 1   
    38    14    47 1   
    39    15    48 1   
    40    15    49 1   
    41    15    50 1   
    42    16    17 ar  
    43    16    22 1   
    44    16    23 ar  
    45    17    18 ar  
    46    17    51 1   
    47    18    19 ar  
    48    18    52 1   
    49    19    20 ar  
    50    19    21 1   
    51    20    23 ar  
    52    20    53 1   
    53    21    25 1   
    54    21    26 1   
@<TRIPOS>SUBSTRUCTURE
     1 E80         1 TEMP              0 ****  ****    0 ROOT
