@<TRIPOS>MOLECULE
E82
   51    54     1     0     0
SMALL
abcg2


@<TRIPOS>ATOM
      1 C3           3.5350    -0.6000     0.6360 c6         1 E82       0.154000
      2 C42         -4.9660     2.1250     0.6890 ca         1 E82      -0.116000
      3 C44         -3.7790     1.5000     0.3320 ca         1 E82      -0.093000
      4 C46         -7.4770    -0.6920     0.2810 c3         1 E82       0.196100
      5 C11          6.4800    -0.7360     0.1750 c6         1 E82      -0.033100
      6 C14          5.6950     0.5220    -0.1000 ca         1 E82      -0.064300
      7 C15          4.3110     0.5860     0.0860 ca         1 E82      -0.098300
      8 C16          3.6390     1.7750    -0.2000 ca         1 E82      -0.095000
      9 C18          4.3160     2.8890    -0.6690 ca         1 E82      -0.115000
     10 C20          5.6910     2.8260    -0.8580 ca         1 E82      -0.104000
     11 C22          6.3650     1.6510    -0.5720 ca         1 E82      -0.115000
     12 C26         -0.1590    -0.9030    -0.1450 ca         1 E82      -0.151600
     13 C27         -1.3460    -0.2830     0.2310 ca         1 E82      -0.050000
     14 C29         -2.5300    -0.5120    -0.4630 cp         1 E82      -0.037000
     15 C30         -2.5100    -1.4010    -1.5400 ca         1 E82      -0.083000
     16 O25          0.9780    -0.3520     1.8590 o          1 E82      -0.600100
     17 N1           2.2340    -0.7150     0.0120 ns         1 E82      -0.502900
     18 C8           5.7210    -1.7310     1.0380 c6         1 E82      -0.071400
     19 C5           4.3080    -1.9090     0.5100 c6         1 E82      -0.087400
     20 C34         -0.1580    -1.7900    -1.2190 ca         1 E82      -0.088000
     21 C32         -1.3350    -2.0370    -1.9090 ca         1 E82      -0.119000
     22 C36         -3.7810     0.1640    -0.0660 cp         1 E82      -0.043000
     23 C40         -6.1640     1.4290     0.6590 ca         1 E82      -0.077000
     24 C39         -6.1880     0.0880     0.2780 ca         1 E82      -0.089300
     25 C37         -4.9960    -0.5240    -0.0870 ca         1 E82      -0.097000
     26 N49         -8.5330     0.0240    -0.4170 n8         1 E82      -0.996200
     27 H1           3.3520    -0.4150     1.6970 h1         1 E82       0.093700
     28 H2          -4.9530     3.1660     0.9850 ha         1 E82       0.115000
     29 H3          -2.8540     2.0630     0.3430 ha         1 E82       0.116000
     30 H4          -7.2800    -1.6970    -0.1150 h1         1 E82       0.035200
     31 H5          -7.8000    -0.8350     1.3160 h1         1 E82       0.035200
     32 H6           6.7330    -1.2070    -0.7810 hc         1 E82       0.049200
     33 H7           7.4340    -0.4750     0.6390 hc         1 E82       0.049200
     34 H8           2.5670     1.8320    -0.0570 ha         1 E82       0.118000
     35 H9           3.7730     3.8000    -0.8860 ha         1 E82       0.114000
     36 H10          6.2330     3.6890    -1.2220 ha         1 E82       0.113000
     37 H11          7.4390     1.6020    -0.7170 ha         1 E82       0.110000
     38 H12         -1.3450     0.3790     1.0880 ha         1 E82       0.138000
     39 H13         -3.4160    -1.5880    -2.1020 ha         1 E82       0.117000
     40 H14          2.2220    -0.8660    -0.9850 hn         1 E82       0.315500
     41 H15          6.2480    -2.6870     1.0560 hc         1 E82       0.047200
     42 H16          5.6820    -1.3770     2.0720 hc         1 E82       0.047200
     43 H17          3.7750    -2.6880     1.0580 hc         1 E82       0.047200
     44 H18          4.3400    -2.2200    -0.5400 hc         1 E82       0.047200
     45 H19          0.7420    -2.3170    -1.5090 ha         1 E82       0.112000
     46 H20         -1.3370    -2.7290    -2.7400 ha         1 E82       0.116000
     47 H21         -7.0880     1.9230     0.9320 ha         1 E82       0.128000
     48 H22         -5.0130    -1.5690    -0.3770 ha         1 E82       0.109000
     49 H23         -8.3270     0.0440    -1.4080 hn         1 E82       0.395000
     50 H24         -9.4000    -0.4900    -0.3230 hn         1 E82       0.395000
     51 C24          1.0660    -0.6340     0.6720 c          1 E82       0.614700
@<TRIPOS>BOND
     1     1     7 1   
     2     1    17 1   
     3     1    19 1   
     4     1    27 1   
     5     2     3 ar  
     6     2    23 ar  
     7     2    28 1   
     8     3    22 ar  
     9     3    29 1   
    10     4    24 1   
    11     4    26 1   
    12     4    30 1   
    13     4    31 1   
    14     5     6 1   
    15     5    18 1   
    16     5    32 1   
    17     5    33 1   
    18     6     7 ar  
    19     6    11 ar  
    20     7     8 ar  
    21     8     9 ar  
    22     8    34 1   
    23     9    10 ar  
    24     9    35 1   
    25    10    11 ar  
    26    10    36 1   
    27    11    37 1   
    28    12    13 ar  
    29    12    20 ar  
    30    12    51 1   
    31    13    14 ar  
    32    13    38 1   
    33    14    15 ar  
    34    14    22 1   
    35    15    21 ar  
    36    15    39 1   
    37    16    51 2   
    38    17    40 1   
    39    17    51 1   
    40    18    19 1   
    41    18    41 1   
    42    18    42 1   
    43    19    43 1   
    44    19    44 1   
    45    20    21 ar  
    46    20    45 1   
    47    21    46 1   
    48    22    25 ar  
    49    23    24 ar  
    50    23    47 1   
    51    24    25 ar  
    52    25    48 1   
    53    26    49 1   
    54    26    50 1   
@<TRIPOS>SUBSTRUCTURE
     1 E82         1 TEMP              0 ****  ****    0 ROOT
