@<TRIPOS>MOLECULE
E82
   51    54     1     0     0
SMALL
No Charge or Current Charge


@<TRIPOS>ATOM
      1 C3           3.5590    -0.1850     0.7780 c6         1 E82       0.154000
      2 C42         -5.4580     1.3870     1.8220 ca         1 E82      -0.116000
      3 C44         -4.1950     1.1660     1.2480 ca         1 E82      -0.093000
      4 C46         -7.6040    -1.2020    -0.0180 c3         1 E82       0.196100
      5 C11          6.3950    -1.1670     0.4030 c6         1 E82      -0.033100
      6 C14          5.8850     0.0910    -0.3100 ca         1 E82      -0.064300
      7 C15          4.5530     0.5500    -0.1440 ca         1 E82      -0.098300
      8 C16          4.1470     1.7310    -0.8040 ca         1 E82      -0.095000
      9 C18          5.0370     2.4280    -1.6380 ca         1 E82      -0.115000
     10 C20          6.3460     1.9570    -1.8170 ca         1 E82      -0.104000
     11 C22          6.7670     0.7940    -1.1530 ca         1 E82      -0.115000
     12 C26         -0.1970    -0.1690    -0.1540 ca         1 E82      -0.151600
     13 C27         -1.4770     0.0500     0.4060 ca         1 E82      -0.050000
     14 C29         -2.6620    -0.0590    -0.3650 cp         1 E82      -0.037000
     15 C30         -2.5330    -0.3980    -1.7330 ca         1 E82      -0.083000
     16 O25          0.9550     0.2620     1.9110 o          1 E82      -0.600100
     17 N1           2.2450    -0.2780     0.1280 ns         1 E82      -0.502900
     18 C8           5.5170    -1.5850     1.6010 c6         1 E82      -0.071400
     19 C5           4.0330    -1.5980     1.1910 c6         1 E82      -0.087400
     20 C34         -0.1090    -0.5050    -1.5260 ca         1 E82      -0.088000
     21 C32         -1.2720    -0.6180    -2.3050 ca         1 E82      -0.119000
     22 C36         -4.0090     0.1780     0.2480 cp         1 E82      -0.043000
     23 C40         -6.5620     0.6240     1.4100 ca         1 E82      -0.077000
     24 C39         -6.4090    -0.3650     0.4200 ca         1 E82      -0.089300
     25 C37         -5.1390    -0.5800    -0.1520 ca         1 E82      -0.097000
     26 N49         -8.4130    -0.4990    -1.0310 n8         1 E82      -0.996200
     27 H1           3.4620     0.4220     1.6910 h1         1 E82       0.093700
     28 H2          -5.5820     2.1530     2.5840 ha         1 E82       0.115000
     29 H3          -3.3570     1.7780     1.5710 ha         1 E82       0.116000
     30 H4          -7.2560    -2.1550    -0.4410 h1         1 E82       0.035200
     31 H5          -8.2390    -1.4260     0.8500 h1         1 E82       0.035200
     32 H6           6.4350    -1.9920    -0.3220 hc         1 E82       0.049200
     33 H7           7.4270    -1.0130     0.7470 hc         1 E82       0.049200
     34 H8           3.1390     2.1160    -0.6690 ha         1 E82       0.118000
     35 H9           4.7110     3.3330    -2.1450 ha         1 E82       0.114000
     36 H10          7.0350     2.4950    -2.4640 ha         1 E82       0.113000
     37 H11          7.7860     0.4400    -1.2910 ha         1 E82       0.110000
     38 H12         -1.5600     0.2950     1.4620 ha         1 E82       0.138000
     39 H13         -3.4180    -0.4780    -2.3600 ha         1 E82       0.117000
     40 H14          2.2250    -0.5200    -0.8530 hn         1 E82       0.315500
     41 H15          5.8210    -2.5780     1.9600 hc         1 E82       0.047200
     42 H16          5.6660    -0.8870     2.4370 hc         1 E82       0.047200
     43 H17          3.4140    -1.9700     2.0190 hc         1 E82       0.047200
     44 H18          3.8940    -2.3000     0.3560 hc         1 E82       0.047200
     45 H19          0.8490    -0.6820    -2.0070 ha         1 E82       0.112000
     46 H20         -1.1940    -0.8740    -3.3600 ha         1 E82       0.116000
     47 H21         -7.5380     0.8000     1.8570 ha         1 E82       0.128000
     48 H22         -5.0250    -1.3550    -0.9060 ha         1 E82       0.109000
     49 H23         -7.8310    -0.3420    -1.8620 hn         1 E82       0.395000
     50 H24         -9.1500    -1.1320    -1.3650 hn         1 E82       0.395000
     51 C24          1.0300    -0.0390     0.7270 c          1 E82       0.614700
@<TRIPOS>BOND
     1     1     7 1   
     2     1    17 1   
     3     1    19 1   
     4     1    27 1   
     5     2     3 ar  
     6     2    23 ar  
     7     2    28 1   
     8     3    22 ar  
     9     3    29 1   
    10     4    24 1   
    11     4    26 1   
    12     4    30 1   
    13     4    31 1   
    14     5     6 1   
    15     5    18 1   
    16     5    32 1   
    17     5    33 1   
    18     6     7 ar  
    19     6    11 ar  
    20     7     8 ar  
    21     8     9 ar  
    22     8    34 1   
    23     9    10 ar  
    24     9    35 1   
    25    10    11 ar  
    26    10    36 1   
    27    11    37 1   
    28    12    13 ar  
    29    12    20 ar  
    30    12    51 1   
    31    13    14 ar  
    32    13    38 1   
    33    14    15 ar  
    34    14    22 1   
    35    15    21 ar  
    36    15    39 1   
    37    16    51 2   
    38    17    40 1   
    39    17    51 1   
    40    18    19 1   
    41    18    41 1   
    42    18    42 1   
    43    19    43 1   
    44    19    44 1   
    45    20    21 ar  
    46    20    45 1   
    47    21    46 1   
    48    22    25 ar  
    49    23    24 ar  
    50    23    47 1   
    51    24    25 ar  
    52    25    48 1   
    53    26    49 1   
    54    26    50 1   
@<TRIPOS>SUBSTRUCTURE
     1 E82         1 TEMP              0 ****  ****    0 ROOT
