@<TRIPOS>MOLECULE
E83
   51    53     1     0     0
SMALL
bcc


@<TRIPOS>ATOM
      1 CAB          7.9220   -10.2730   -20.6200 ca         1 E83      -0.260500
      2 CAC          6.7830   -10.7950   -20.0250 ca         1 E83      -0.021000
      3 CAD          5.5440   -10.3700   -20.4840 ca         1 E83      -0.131000
      4 CAE          5.4390    -9.4300   -21.4950 ca         1 E83      -0.094000
      5 CAF          6.5970    -8.9070   -22.0660 ca         1 E83       0.111600
      6 CAG          7.8480    -9.3370   -21.6390 ca         1 E83      -0.058000
      7 CAJ          5.3190    -6.5440   -24.3900 ce         1 E83       0.084300
      8 CAK          3.9300    -6.0670   -24.5690 c          1 E83       0.542400
      9 CAL          2.8050    -6.9710   -24.1910 ca         1 E83      -0.143600
     10 CAM          1.6790    -6.4090   -23.5920 ca         1 E83      -0.079500
     11 CAN          0.5860    -7.2000   -23.2730 ca         1 E83      -0.143500
     12 CAO          0.5960    -8.5550   -23.5800 ca         1 E83      -0.112000
     13 CAP          1.7040    -9.1160   -24.2000 ca         1 E83      -0.143500
     14 CAQ          2.8100    -8.3320   -24.4950 ca         1 E83      -0.079500
     15 CAS          6.4670    -5.9760   -25.1280 c          1 E83       0.505800
     16 CAT          6.2580    -5.0180   -26.2630 c3         1 E83      -0.181100
     17 CAW          9.8580    -8.2220   -19.1980 ca         1 E83       0.115600
     18 CAX         10.7780    -7.7240   -20.1180 ca         1 E83      -0.163000
     19 CAY         10.7600    -6.3830   -20.4630 ca         1 E83      -0.135000
     20 CAZ          9.8390    -5.5250   -19.8770 ca         1 E83      -0.165000
     21 CBA          8.9480    -6.0180   -18.9380 ca         1 E83      -0.090000
     22 CBB          8.9360    -7.3630   -18.5790 ca         1 E83      -0.173600
     23 CBC          7.9550    -7.8390   -17.5110 c          1 E83       0.930200
     24 NAH          6.5580    -7.9440   -23.0730 nu         1 E83      -0.382700
     25 NAI          5.4390    -7.4600   -23.4680 n2         1 E83      -0.309400
     26 NAV          9.8580    -9.5900   -18.8370 nu         1 E83      -0.688500
     27 OAR          3.6930    -4.9480   -24.9810 o          1 E83      -0.545100
     28 OAU          7.5990    -6.3260   -24.8230 o          1 E83      -0.582100
     29 OBD          7.1200    -7.0290   -17.1020 o          1 E83      -0.794800
     30 OBE          8.0850    -9.0310   -17.1100 o          1 E83      -0.794800
     31 OBF          9.3930   -11.9800   -19.2670 o          1 E83      -0.635300
     32 OBG         10.4790   -10.6180   -21.0730 o          1 E83      -0.635300
     33 SAA          9.5200   -10.7240   -19.9850 sy         1 E83       1.268200
     34 H1           6.8500   -11.5240   -19.2300 ha         1 E83       0.165000
     35 H2           4.6430   -10.7760   -20.0440 ha         1 E83       0.132000
     36 H3           4.4660    -9.1040   -21.8360 ha         1 E83       0.148000
     37 H4           8.7430    -8.9380   -22.1000 ha         1 E83       0.158000
     38 H5           1.6630    -5.3530   -23.3580 ha         1 E83       0.140000
     39 H6          -0.2760    -6.7590   -22.7900 ha         1 E83       0.130000
     40 H7          -0.2610    -9.1720   -23.3400 ha         1 E83       0.126000
     41 H8           1.7110   -10.1690   -24.4530 ha         1 E83       0.130000
     42 H9           3.6660    -8.7820   -24.9800 ha         1 E83       0.140000
     43 H10          7.1890    -4.9180   -26.8170 hc         1 E83       0.064700
     44 H11          5.4690    -5.3480   -26.9380 hc         1 E83       0.064700
     45 H12          5.9670    -4.0380   -25.8860 hc         1 E83       0.064700
     46 H13         11.5120    -8.3830   -20.5580 ha         1 E83       0.146000
     47 H14         11.4750    -6.0080   -21.1830 ha         1 E83       0.113000
     48 H15          9.8250    -4.4760   -20.1420 ha         1 E83       0.113000
     49 H16          8.2390    -5.3490   -18.4680 ha         1 E83       0.149000
     50 H17          7.4250    -7.5950   -23.4820 hn         1 E83       0.482800
     51 H18          9.1870    -9.6690   -18.0150 hn         1 E83       0.517800
@<TRIPOS>BOND
     1     1     2 ar  
     2     1     6 ar  
     3     1    33 1   
     4     2     3 ar  
     5     2    34 1   
     6     3     4 ar  
     7     3    35 1   
     8     4     5 ar  
     9     4    36 1   
    10     5     6 ar  
    11     5    24 1   
    12     6    37 1   
    13     7     8 1   
    14     7    15 1   
    15     7    25 2   
    16     8     9 1   
    17     8    27 2   
    18     9    10 ar  
    19     9    14 ar  
    20    10    11 ar  
    21    10    38 1   
    22    11    12 ar  
    23    11    39 1   
    24    12    13 ar  
    25    12    40 1   
    26    13    14 ar  
    27    13    41 1   
    28    14    42 1   
    29    15    16 1   
    30    15    28 2   
    31    16    43 1   
    32    16    44 1   
    33    16    45 1   
    34    17    18 ar  
    35    17    22 ar  
    36    17    26 1   
    37    18    19 ar  
    38    18    46 1   
    39    19    20 ar  
    40    19    47 1   
    41    20    21 ar  
    42    20    48 1   
    43    21    22 ar  
    44    21    49 1   
    45    22    23 1   
    46    23    29 1   
    47    23    30 1   
    48    24    25 1   
    49    24    50 1   
    50    26    33 1   
    51    26    51 1   
    52    31    33 2   
    53    32    33 2   
@<TRIPOS>SUBSTRUCTURE
     1 E83         1 TEMP              0 ****  ****    0 ROOT
