@<TRIPOS>MOLECULE
E83
   51    53     1     0     0
SMALL
No Charge or Current Charge


@<TRIPOS>ATOM
      1 CAB          8.0360   -10.1330   -20.5710 ca         1 E83      -0.260500
      2 CAC          6.9490   -10.4600   -19.7360 ca         1 E83      -0.003000
      3 CAD          5.6710    -9.9560   -20.0260 ca         1 E83      -0.113000
      4 CAE          5.4740    -9.1220   -21.1410 ca         1 E83      -0.076000
      5 CAF          6.5550    -8.7810   -21.9810 ca         1 E83       0.250000
      6 CAG          7.8340    -9.2930   -21.6880 ca         1 E83      -0.040000
      7 CAJ          5.0690    -6.6120   -24.5360 ce         1 E83       0.084300
      8 CAK          3.7060    -5.9940   -24.7290 c          1 E83       0.542400
      9 CAL          2.4650    -6.8640   -24.5940 ca         1 E83      -0.143600
     10 CAM          1.2030    -6.2550   -24.4030 ca         1 E83      -0.061500
     11 CAN          0.0400    -7.0360   -24.2840 ca         1 E83      -0.125500
     12 CAO          0.1180    -8.4340   -24.3640 ca         1 E83      -0.094000
     13 CAP          1.3610    -9.0520   -24.5680 ca         1 E83      -0.125500
     14 CAQ          2.5270    -8.2760   -24.6860 ca         1 E83      -0.061500
     15 CAS          6.2620    -6.1860   -25.3930 c          1 E83       0.505800
     16 CAT          6.0130    -5.3370   -26.6470 c3         1 E83      -0.181100
     17 CAW         10.1530    -8.3150   -19.0190 ca         1 E83       0.254000
     18 CAX         10.5200    -7.5700   -20.1580 ca         1 E83      -0.145000
     19 CAY         10.4010    -6.1720   -20.1730 ca         1 E83      -0.117000
     20 CAZ          9.9180    -5.5060   -19.0410 ca         1 E83      -0.147000
     21 CBA          9.5620    -6.2330   -17.8950 ca         1 E83      -0.072000
     22 CBB          9.6740    -7.6460   -17.8610 ca         1 E83      -0.173600
     23 CBC          9.2760    -8.3860   -16.5930 c          1 E83       0.719600
     24 NAH          6.3810    -7.9460   -23.1010 nu         1 E83      -0.576300
     25 NAI          5.2010    -7.3620   -23.4630 n2         1 E83      -0.309400
     26 NAV         10.2720    -9.6980   -19.0350 nu         1 E83      -0.882100
     27 OAR          3.5750    -4.8190   -25.0610 o          1 E83      -0.545100
     28 OAU          7.4220    -6.5260   -25.1570 o          1 E83      -0.582100
     29 OBD          9.1530    -7.7390   -15.5620 o          1 E83      -0.689500
     30 OBE          9.0930    -9.5960   -16.6380 o          1 E83      -0.689500
     31 OBF          9.5770   -11.9980   -19.4280 o          1 E83      -0.564500
     32 OBG         10.5800   -10.5990   -21.3320 o          1 E83      -0.564500
     33 SAA          9.6790   -10.7510   -20.1860 sy         1 E83       1.126600
     34 H1           7.0890   -11.0990   -18.8640 ha         1 E83       0.147000
     35 H2           4.8310   -10.2090   -19.3830 ha         1 E83       0.114000
     36 H3           4.4780    -8.7420   -21.3480 ha         1 E83       0.130000
     37 H4           8.6740    -9.0300   -22.3280 ha         1 E83       0.140000
     38 H5           1.1190    -5.1720   -24.3370 ha         1 E83       0.122000
     39 H6          -0.9240    -6.5540   -24.1310 ha         1 E83       0.112000
     40 H7          -0.7830    -9.0370   -24.2730 ha         1 E83       0.108000
     41 H8           1.4220   -10.1360   -24.6390 ha         1 E83       0.112000
     42 H9           3.4720    -8.7840   -24.8640 ha         1 E83       0.122000
     43 H10          6.8820    -5.3190   -27.3150 hc         1 E83       0.064700
     44 H11          5.1080    -5.6770   -27.1620 hc         1 E83       0.064700
     45 H12          5.7660    -4.3160   -26.3370 hc         1 E83       0.064700
     46 H13         10.9100    -8.0700   -21.0380 ha         1 E83       0.128000
     47 H14         10.6860    -5.6090   -21.0590 ha         1 E83       0.095000
     48 H15          9.8240    -4.4220   -19.0480 ha         1 E83       0.095000
     49 H16          9.1910    -5.6890   -17.0280 ha         1 E83       0.131000
     50 H17          7.2360    -7.7570   -23.6490 hn         1 E83       0.538000
     51 H18          9.8980   -10.1120   -18.1790 hn         1 E83       0.573000
@<TRIPOS>BOND
     1     1     2 ar  
     2     1     6 ar  
     3     1    33 1   
     4     2     3 ar  
     5     2    34 1   
     6     3     4 ar  
     7     3    35 1   
     8     4     5 ar  
     9     4    36 1   
    10     5     6 ar  
    11     5    24 1   
    12     6    37 1   
    13     7     8 1   
    14     7    15 1   
    15     7    25 2   
    16     8     9 1   
    17     8    27 2   
    18     9    10 ar  
    19     9    14 ar  
    20    10    11 ar  
    21    10    38 1   
    22    11    12 ar  
    23    11    39 1   
    24    12    13 ar  
    25    12    40 1   
    26    13    14 ar  
    27    13    41 1   
    28    14    42 1   
    29    15    16 1   
    30    15    28 2   
    31    16    43 1   
    32    16    44 1   
    33    16    45 1   
    34    17    18 ar  
    35    17    22 ar  
    36    17    26 1   
    37    18    19 ar  
    38    18    46 1   
    39    19    20 ar  
    40    19    47 1   
    41    20    21 ar  
    42    20    48 1   
    43    21    22 ar  
    44    21    49 1   
    45    22    23 1   
    46    23    29 1   
    47    23    30 1   
    48    24    25 1   
    49    24    50 1   
    50    26    33 1   
    51    26    51 1   
    52    31    33 2   
    53    32    33 2   
@<TRIPOS>SUBSTRUCTURE
     1 E83         1 TEMP              0 ****  ****    0 ROOT
