@<TRIPOS>MOLECULE
E84
   50    52     1     0     0
SMALL
abcg2


@<TRIPOS>ATOM
      1 C10         -5.8190   -42.1730    36.7620 ca         1 E84      -0.109000
      2 C11         -6.1180   -43.1820    37.6650 ca         1 E84      -0.115500
      3 C12         -5.1570   -44.1240    38.0110 ca         1 E84      -0.101000
      4 C13         -1.8390   -44.2890    38.7610 c          1 E84       0.591100
      5 C16         -1.6720   -43.2240    40.8780 c3         1 E84       0.164600
      6 C01         -3.3620   -47.6800    36.4840 c6         1 E84      -0.075400
      7 C02         -2.8530   -46.4630    35.7240 c6         1 E84      -0.075400
      8 C03         -2.0000   -45.5760    36.6210 c6         1 E84      -0.062400
      9 C04         -2.7800   -45.0760    37.8500 c6         1 E84      -0.044700
     10 C05         -3.2990   -46.3160    38.6090 c6         1 E84      -0.062400
     11 C06         -4.1250   -47.2540    37.7310 c6         1 E84      -0.075400
     12 C07         -3.8800   -44.0880    37.4550 ca         1 E84      -0.071300
     13 C08         -3.5900   -43.0570    36.5600 ca         1 E84      -0.101000
     14 C09         -4.5460   -42.1130    36.2130 ca         1 E84      -0.115500
     15 C17         -1.6670   -41.7230    40.6460 c3         1 E84       0.144800
     16 C19         -2.8850   -39.8100    41.5600 c6         1 E84       0.130800
     17 C20         -2.4560   -38.6870    40.6280 c6         1 E84       0.116600
     18 C22         -3.3780   -39.8220    38.8040 c6         1 E84       0.116600
     19 C23         -3.8070   -40.9670    39.7090 c6         1 E84       0.130800
     20 N18         -2.9610   -41.1010    40.8890 n3         1 E84      -0.723600
     21 O14         -0.7070   -43.9840    38.4820 o          1 E84      -0.492000
     22 O15         -2.4250   -43.9620    39.9070 os         1 E84      -0.434100
     23 O21         -3.3160   -38.5980    39.5110 os         1 E84      -0.449000
     24 H1          -6.5670   -41.4380    36.4920 ha         1 E84       0.115000
     25 H2          -7.1030   -43.2390    38.1090 ha         1 E84       0.114000
     26 H3          -5.4240   -44.8890    38.7260 ha         1 E84       0.118000
     27 H4          -2.1510   -43.4440    41.8310 h1         1 E84       0.065200
     28 H5          -0.6460   -43.5940    40.9150 h1         1 E84       0.065200
     29 H6          -3.9970   -48.2960    35.8430 hc         1 E84       0.040200
     30 H7          -2.5100   -48.3040    36.7750 hc         1 E84       0.040200
     31 H8          -3.6990   -45.8930    35.3270 hc         1 E84       0.043950
     32 H9          -2.2600   -46.7740    34.8600 hc         1 E84       0.043950
     33 H10         -1.1400   -46.1540    36.9720 hc         1 E84       0.052700
     34 H11         -1.5890   -44.7450    36.0470 hc         1 E84       0.052700
     35 H12         -2.4250   -46.8680    38.9720 hc         1 E84       0.052700
     36 H13         -3.8650   -46.0340    39.4980 hc         1 E84       0.052700
     37 H14         -5.0590   -46.7700    37.4330 hc         1 E84       0.043950
     38 H15         -4.4090   -48.1280    38.3210 hc         1 E84       0.043950
     39 H16         -2.6040   -42.9750    36.1200 ha         1 E84       0.118000
     40 H17         -4.2890   -41.3250    35.5160 ha         1 E84       0.114000
     41 H18         -0.9490   -41.3240    41.3660 h1         1 E84       0.045200
     42 H19         -1.2480   -41.4970    39.6580 h1         1 E84       0.045200
     43 H21         -2.2010   -39.8720    42.4100 h1         1 E84       0.063950
     44 H22         -1.4160   -38.8430    40.3030 h1         1 E84       0.047200
     45 H23         -2.4950   -37.7250    41.1440 h1         1 E84       0.047200
     46 H24         -2.4040   -40.0470    38.3450 h1         1 E84       0.047200
     47 H25         -4.0970   -39.6940    37.9930 h1         1 E84       0.047200
     48 H26         -4.8350   -40.7920    40.0460 h1         1 E84       0.063950
     49 H27         -3.8210   -41.8970    39.1420 h1         1 E84       0.063950
     50 H20         -3.8750   -39.5780    41.9670 h1         1 E84       0.063950
@<TRIPOS>BOND
     1     1     2 ar  
     2     1    14 ar  
     3     1    24 1   
     4     2     3 ar  
     5     2    25 1   
     6     3    12 ar  
     7     3    26 1   
     8     4     9 1   
     9     4    21 2   
    10     4    22 1   
    11     5    15 1   
    12     5    22 1   
    13     5    27 1   
    14     5    28 1   
    15     6     7 1   
    16     6    11 1   
    17     6    29 1   
    18     6    30 1   
    19     7     8 1   
    20     7    31 1   
    21     7    32 1   
    22     8     9 1   
    23     8    33 1   
    24     8    34 1   
    25     9    10 1   
    26     9    12 1   
    27    10    11 1   
    28    10    35 1   
    29    10    36 1   
    30    11    37 1   
    31    11    38 1   
    32    12    13 ar  
    33    13    14 ar  
    34    13    39 1   
    35    14    40 1   
    36    15    20 1   
    37    15    41 1   
    38    15    42 1   
    39    16    17 1   
    40    16    20 1   
    41    16    43 1   
    42    16    50 1   
    43    17    23 1   
    44    17    44 1   
    45    17    45 1   
    46    18    19 1   
    47    18    23 1   
    48    18    46 1   
    49    18    47 1   
    50    19    20 1   
    51    19    48 1   
    52    19    49 1   
@<TRIPOS>SUBSTRUCTURE
     1 E84         1 TEMP              0 ****  ****    0 ROOT
