@<TRIPOS>MOLECULE
E84
   50    52     1     0     0
SMALL
No Charge or Current Charge


@<TRIPOS>ATOM
      1 C10         -4.4880   -42.3380    33.6460 ca         1 E84      -0.109000
      2 C11         -5.1610   -42.1220    34.8560 ca         1 E84      -0.115500
      3 C12         -4.6780   -42.6910    36.0470 ca         1 E84      -0.101000
      4 C13         -2.0430   -43.0700    38.0760 c          1 E84       0.591100
      5 C16         -0.5760   -42.6410    39.9770 c3         1 E84       0.164600
      6 C01         -4.2210   -46.9210    37.4780 c6         1 E84      -0.075400
      7 C02         -3.0150   -46.5940    36.5670 c6         1 E84      -0.075400
      8 C03         -2.1550   -45.4530    37.1750 c6         1 E84      -0.062400
      9 C04         -2.9700   -44.1210    37.3840 c6         1 E84      -0.044700
     10 C05         -4.1130   -44.5380    38.3840 c6         1 E84      -0.062400
     11 C06         -5.0330   -45.6470    37.8080 c6         1 E84      -0.075400
     12 C07         -3.5160   -43.5030    36.0510 ca         1 E84      -0.071300
     13 C08         -2.8360   -43.6850    34.8210 ca         1 E84      -0.101000
     14 C09         -3.3220   -43.1150    33.6320 ca         1 E84      -0.115500
     15 C17         -1.3410   -41.4770    40.6770 c3         1 E84       0.144800
     16 C19         -2.4960   -40.5890    42.7030 c6         1 E84       0.130800
     17 C20         -3.7940   -40.0170    42.0520 c6         1 E84       0.116600
     18 C22         -4.3840   -42.2160    41.2440 c6         1 E84       0.116600
     19 C23         -3.1010   -42.8170    41.8970 c6         1 E84       0.130800
     20 N18         -1.9940   -41.8060    41.9840 n3         1 E84      -0.723600
     21 O14         -1.7930   -41.9750    37.5860 o          1 E84      -0.492000
     22 O15         -1.4820   -43.5090    39.2540 os         1 E84      -0.434100
     23 O21         -4.8130   -41.0440    41.9790 os         1 E84      -0.449000
     24 H1          -4.8620   -41.8950    32.7250 ha         1 E84       0.115000
     25 H2          -6.0580   -41.5070    34.8750 ha         1 E84       0.114000
     26 H3          -5.2190   -42.4800    36.9640 ha         1 E84       0.118000
     27 H4          -0.0340   -43.2100    40.7420 h1         1 E84       0.065200
     28 H5           0.1740   -42.2210    39.2950 h1         1 E84       0.065200
     29 H6          -4.8680   -47.6650    36.9930 hc         1 E84       0.040200
     30 H7          -3.8630   -47.3800    38.4100 hc         1 E84       0.040200
     31 H8          -3.3710   -46.3150    35.5660 hc         1 E84       0.043950
     32 H9          -2.3980   -47.4930    36.4350 hc         1 E84       0.043950
     33 H10         -1.7560   -45.8050    38.1370 hc         1 E84       0.052700
     34 H11         -1.2650   -45.2770    36.5580 hc         1 E84       0.052700
     35 H12         -3.6770   -44.9070    39.3230 hc         1 E84       0.052700
     36 H13         -4.7170   -43.6720    38.6790 hc         1 E84       0.052700
     37 H14         -5.5450   -45.2880    36.9050 hc         1 E84       0.043950
     38 H15         -5.8210   -45.8900    38.5340 hc         1 E84       0.043950
     39 H16         -1.9210   -44.2650    34.7640 ha         1 E84       0.118000
     40 H17         -2.7880   -43.2730    32.6970 ha         1 E84       0.114000
     41 H18         -0.5970   -40.6890    40.8560 h1         1 E84       0.045200
     42 H19         -2.0700   -41.0490    39.9770 h1         1 E84       0.045200
     43 H21         -1.7270   -39.8030    42.7290 h1         1 E84       0.063950
     44 H22         -3.5830   -39.6420    41.0400 h1         1 E84       0.047200
     45 H23         -4.1740   -39.1780    42.6520 h1         1 E84       0.047200
     46 H24         -4.1880   -41.9370    40.2000 h1         1 E84       0.047200
     47 H25         -5.1910   -42.9610    41.2530 h1         1 E84       0.047200
     48 H26         -3.3660   -43.1620    42.9070 h1         1 E84       0.063950
     49 H27         -2.7890   -43.7140    41.3450 h1         1 E84       0.063950
     50 H20         -2.7200   -40.8400    43.7510 h1         1 E84       0.063950
@<TRIPOS>BOND
     1     1     2 ar  
     2     1    14 ar  
     3     1    24 1   
     4     2     3 ar  
     5     2    25 1   
     6     3    12 ar  
     7     3    26 1   
     8     4     9 1   
     9     4    21 2   
    10     4    22 1   
    11     5    15 1   
    12     5    22 1   
    13     5    27 1   
    14     5    28 1   
    15     6     7 1   
    16     6    11 1   
    17     6    29 1   
    18     6    30 1   
    19     7     8 1   
    20     7    31 1   
    21     7    32 1   
    22     8     9 1   
    23     8    33 1   
    24     8    34 1   
    25     9    10 1   
    26     9    12 1   
    27    10    11 1   
    28    10    35 1   
    29    10    36 1   
    30    11    37 1   
    31    11    38 1   
    32    12    13 ar  
    33    13    14 ar  
    34    13    39 1   
    35    14    40 1   
    36    15    20 1   
    37    15    41 1   
    38    15    42 1   
    39    16    17 1   
    40    16    20 1   
    41    16    43 1   
    42    16    50 1   
    43    17    23 1   
    44    17    44 1   
    45    17    45 1   
    46    18    19 1   
    47    18    23 1   
    48    18    46 1   
    49    18    47 1   
    50    19    20 1   
    51    19    48 1   
    52    19    49 1   
@<TRIPOS>SUBSTRUCTURE
     1 E84         1 TEMP              0 ****  ****    0 ROOT
