@<TRIPOS>MOLECULE
E85
   43    46     1     0     0
SMALL
bcc


@<TRIPOS>ATOM
      1 N1           0.5910    -3.7180     0.4920 na         1 E85      -0.101800
      2 N3           1.5410    -2.7640     0.4430 nc         1 E85      -0.557100
      3 C4           0.9150    -1.6180     0.3550 cd         1 E85       0.600800
      4 C5          -0.4930    -1.8220     0.3480 ca         1 E85      -0.539500
      5 C6          -0.6450    -3.2050     0.4620 ca         1 E85       0.499800
      6 C8          -2.8410    -3.0440     0.4480 ca         1 E85       0.724900
      7 C15         -3.9860     0.9660     0.0580 ca         1 E85      -0.244000
      8 C17         -4.9050     2.0010    -0.1030 ca         1 E85       0.164100
      9 C20         -3.1400     3.5010    -0.6910 ca         1 E85      -0.065000
     10 C22         -2.2090     2.4890    -0.5320 ca         1 E85      -0.223000
     11 C28          2.8620    -0.1610    -0.0770 ca         1 E85       0.154600
     12 O24         -6.2230     1.8080     0.1010 oh         1 E85      -0.495100
     13 C18         -4.4910     3.2750    -0.4820 ca         1 E85      -0.188000
     14 C14         -2.6310     1.2100    -0.1580 ca         1 E85       0.203600
     15 C11         -1.6830    -1.0780     0.2160 ca         1 E85       0.794200
     16 N10         -2.8450    -1.7160     0.2940 nb         1 E85      -0.824000
     17 N7          -1.8110    -3.8580     0.5200 nb         1 E85      -0.750000
     18 N26          1.5390    -0.3840     0.3060 nu         1 E85      -0.699600
     19 C36          3.5280    -0.9700    -1.0000 ca         1 E85      -0.148000
     20 C34          4.8210    -0.6430    -1.3790 ca         1 E85      -0.102000
     21 C32          5.4620     0.4750    -0.8640 ca         1 E85      -0.158000
     22 C31          4.8050     1.2890     0.0550 ca         1 E85      -0.056300
     23 C29          3.5110     0.9620     0.4390 ca         1 E85      -0.165000
     24 C38          5.5030     2.4850     0.6530 c3         1 E85       0.196100
     25 N41          4.5910     3.5880     0.8940 n8         1 E85      -0.892800
     26 H1           0.8560    -4.6890     0.5460 hn         1 E85       0.341700
     27 H2          -3.8220    -3.5020     0.5110 h5         1 E85       0.049100
     28 H3          -0.6970     0.6090    -0.1800 hn         1 E85       0.453800
     29 H4          -4.3230    -0.0190     0.3440 ha         1 E85       0.171000
     30 H5          -2.8040     4.4860    -0.9840 ha         1 E85       0.134000
     31 H6          -1.1580     2.6890    -0.7000 ha         1 E85       0.133000
     32 H7          -6.3940     0.8960     0.3630 ho         1 E85       0.430000
     33 H8          -5.2160     4.0690    -0.6070 ha         1 E85       0.149000
     34 H9           1.2040     0.2650     1.0030 hn         1 E85       0.428800
     35 H10          3.0500    -1.8420    -1.4210 ha         1 E85       0.147000
     36 H11          5.3310    -1.2710    -2.0980 ha         1 E85       0.131000
     37 H12          6.4710     0.7150    -1.1780 ha         1 E85       0.129000
     38 H13          2.9930     1.6030     1.1440 ha         1 E85       0.145000
     39 H14          5.9310     2.1890     1.6150 h1         1 E85       0.036700
     40 H15          6.3590     2.7440     0.0150 h1         1 E85       0.036700
     41 H16          5.0740     4.3200     1.3990 hn         1 E85       0.342800
     42 H17          4.3080     3.9940     0.0110 hn         1 E85       0.342800
     43 N12         -1.6260     0.2530    -0.0070 nu         1 E85      -0.730300
@<TRIPOS>BOND
     1     1     2 1   
     2     1     5 1   
     3     1    26 1   
     4     2     3 2   
     5     3     4 1   
     6     3    18 1   
     7     4     5 ar  
     8     4    15 ar  
     9     5    17 ar  
    10     6    16 ar  
    11     6    17 ar  
    12     6    27 1   
    13     7     8 ar  
    14     7    14 ar  
    15     7    29 1   
    16     8    12 1   
    17     8    13 ar  
    18     9    10 ar  
    19     9    13 ar  
    20     9    30 1   
    21    10    14 ar  
    22    10    31 1   
    23    11    18 1   
    24    11    19 ar  
    25    11    23 ar  
    26    12    32 1   
    27    13    33 1   
    28    14    43 1   
    29    15    16 ar  
    30    15    43 1   
    31    18    34 1   
    32    19    20 ar  
    33    19    35 1   
    34    20    21 ar  
    35    20    36 1   
    36    21    22 ar  
    37    21    37 1   
    38    22    23 ar  
    39    22    24 1   
    40    23    38 1   
    41    24    25 1   
    42    24    39 1   
    43    24    40 1   
    44    25    41 1   
    45    25    42 1   
    46    28    43 1   
@<TRIPOS>SUBSTRUCTURE
     1 E85         1 TEMP              0 ****  ****    0 ROOT
