@<TRIPOS>MOLECULE
E85
   43    46     1     0     0
SMALL
No Charge or Current Charge


@<TRIPOS>ATOM
      1 N1           0.5210    -4.0160     0.3330 na         1 E85      -0.152100
      2 N3           1.5020    -3.0080     0.2590 nc         1 E85      -0.557100
      3 C4           0.8070    -1.8870     0.0830 cd         1 E85       0.600800
      4 C5          -0.5930    -2.1410     0.0580 ca         1 E85      -0.408900
      5 C6          -0.7500    -3.4820     0.2310 ca         1 E85       0.171500
      6 C8          -3.0100    -3.1930     0.1190 ca         1 E85       0.198900
      7 C15         -3.4940     1.1540     0.5720 ca         1 E85      -0.226000
      8 C17         -4.3270     2.2810     0.6300 ca         1 E85       0.164100
      9 C20         -3.0030     3.3560    -1.1020 ca         1 E85      -0.047000
     10 C22         -2.1700     2.2250    -1.1570 ca         1 E85      -0.205000
     11 C28          2.7310    -0.2470    -0.0280 ca         1 E85       0.293000
     12 O24         -5.3720     2.3200     1.5020 oh         1 E85      -0.534100
     13 C18         -4.0840     3.3800    -0.2070 ca         1 E85      -0.170000
     14 C14         -2.4200     1.1180    -0.3310 ca         1 E85       0.342000
     15 C11         -1.7000    -1.3200    -0.1110 ca         1 E85       0.465900
     16 N10         -2.9350    -1.8540    -0.0810 nb         1 E85      -0.298000
     17 N7          -1.9700    -4.0480     0.2710 nb         1 E85      -0.224000
     18 N26          1.4200    -0.6820     0.1740 nu         1 E85      -0.893200
     19 C36          3.6580    -0.9870    -0.7870 ca         1 E85      -0.130000
     20 C34          4.9640    -0.5060    -0.9810 ca         1 E85      -0.084000
     21 C32          5.3500     0.7230    -0.4220 ca         1 E85      -0.140000
     22 C31          4.4310     1.4800     0.3290 ca         1 E85      -0.056300
     23 C29          3.1230     0.9890     0.5160 ca         1 E85      -0.147000
     24 C38          4.8460     2.8150     0.9370 c3         1 E85       0.196100
     25 N41          4.4850     3.9480     0.0620 n8         1 E85      -1.003200
     26 H1           0.7480    -5.0010     0.4660 hn         1 E85       0.392000
     27 H2          -4.0080    -3.6280     0.1470 h5         1 E85       0.049100
     28 H3          -0.7140     0.2110    -0.9350 hn         1 E85       0.509000
     29 H4          -3.6720     0.3140     1.2350 ha         1 E85       0.153000
     30 H5          -2.8090     4.2100    -1.7490 ha         1 E85       0.116000
     31 H6          -1.3340     2.2110    -1.8500 ha         1 E85       0.115000
     32 H7          -5.3940     1.4750     2.0000 ho         1 E85       0.469000
     33 H8          -4.7310     4.2520    -0.1590 ha         1 E85       0.131000
     34 H9           0.8050     0.0050     0.5990 hn         1 E85       0.484000
     35 H10          3.3700    -1.9300    -1.2400 ha         1 E85       0.129000
     36 H11          5.6750    -1.0850    -1.5680 ha         1 E85       0.113000
     37 H12          6.3630     1.0890    -0.5760 ha         1 E85       0.111000
     38 H13          2.4120     1.5730     1.0920 ha         1 E85       0.127000
     39 H14          4.3550     2.9480     1.9110 h1         1 E85       0.036700
     40 H15          5.9330     2.8260     1.1010 h1         1 E85       0.036700
     41 H16          4.8660     4.8130     0.4650 hn         1 E85       0.398000
     42 H17          4.9920     3.8500    -0.8250 hn         1 E85       0.398000
     43 N12         -1.5630     0.0250    -0.4060 nu         1 E85      -0.923900
@<TRIPOS>BOND
     1     1     2 1   
     2     1     5 1   
     3     1    26 1   
     4     2     3 2   
     5     3     4 1   
     6     3    18 1   
     7     4     5 ar  
     8     4    15 ar  
     9     5    17 ar  
    10     6    16 ar  
    11     6    17 ar  
    12     6    27 1   
    13     7     8 ar  
    14     7    14 ar  
    15     7    29 1   
    16     8    12 1   
    17     8    13 ar  
    18     9    10 ar  
    19     9    13 ar  
    20     9    30 1   
    21    10    14 ar  
    22    10    31 1   
    23    11    18 1   
    24    11    19 ar  
    25    11    23 ar  
    26    12    32 1   
    27    13    33 1   
    28    14    43 1   
    29    15    16 ar  
    30    15    43 1   
    31    18    34 1   
    32    19    20 ar  
    33    19    35 1   
    34    20    21 ar  
    35    20    36 1   
    36    21    22 ar  
    37    21    37 1   
    38    22    23 ar  
    39    22    24 1   
    40    23    38 1   
    41    24    25 1   
    42    24    39 1   
    43    24    40 1   
    44    25    41 1   
    45    25    42 1   
    46    28    43 1   
@<TRIPOS>SUBSTRUCTURE
     1 E85         1 TEMP              0 ****  ****    0 ROOT
