@<TRIPOS>MOLECULE
E87
  137   136     1     0     0
SMALL
No Charge or Current Charge


@<TRIPOS>ATOM
      1 C2         160.8910   157.2880   130.3250 c3         1 E87      -0.154400
      2 C10        163.5390   152.4060   138.0920 c3         1 E87      -0.091100
      3 C3         161.9440   156.7060   131.3000 c3         1 E87      -0.066400
      4 C5         162.3860   155.8250   133.6940 c3         1 E87      -0.075400
      5 C7         162.7530   154.7780   136.0240 c3         1 E87      -0.075400
      6 C8         162.1250   154.4700   137.4030 c3         1 E87      -0.074400
      7 N          160.7660   156.4610   128.0210 ns         1 E87      -0.499900
      8 CA         161.0230   156.3570   126.5720 c3         1 E87       0.121700
      9 C          159.9110   157.0530   125.7380 c3         1 E87       0.147600
     10 O          159.8000   158.4470   126.0670 oh         1 E87      -0.650000
     11 CB         161.1870   154.8760   126.1560 c3         1 E87       0.033600
     12 SG         162.6470   154.0950   126.9920 ss         1 E87      -0.382000
     13 C1         161.4010   157.3320   128.8790 c          1 E87       0.607100
     14 C15        162.2840   152.2700   129.9040 c          1 E87       0.611100
     15 C21        162.1130   152.8880   131.2910 c3         1 E87      -0.137400
     16 C31        161.7320   151.8480   132.3720 c3         1 E87      -0.062400
     17 C4         161.3570   156.4080   132.6990 c3         1 E87      -0.077400
     18 C41        162.7210   150.6620   132.4810 c3         1 E87      -0.079400
     19 C51        162.4260   149.6890   133.6420 c3         1 E87      -0.078400
     20 C6         161.7560   155.4450   135.0510 c3         1 E87      -0.076400
     21 C61        162.7920   150.2470   135.0370 c3         1 E87      -0.078400
     22 C71        162.6140   149.2210   136.1760 c3         1 E87      -0.081400
     23 C81        161.1430   148.9180   136.5470 c3         1 E87      -0.076400
     24 C9         163.1020   153.8460   138.4270 c3         1 E87      -0.073400
     25 CC1        160.9920   147.9530   137.7480 c3         1 E87      -0.075400
     26 O1         163.3360   151.7740   129.5310 o          1 E87      -0.478000
     27 O11        162.8510   149.0930   126.6240 o          1 E87      -0.497000
     28 O2         162.2770   158.1030   128.5140 o          1 E87      -0.595100
     29 O21        161.1550   152.4400   129.1340 os         1 E87      -0.463100
     30 C90        161.3900   146.4850   137.4420 c3         1 E87      -0.076400
     31 C91        166.2630   148.3310   137.0030 c3         1 E87      -0.075400
     32 C92        161.4490   145.5630   138.6820 c3         1 E87      -0.076400
     33 C93        165.8900   148.9390   138.3730 c3         1 E87      -0.076400
     34 C94        160.1170   145.4420   139.4630 c3         1 E87      -0.075400
     35 C95        164.9100   148.0680   139.1900 c3         1 E87      -0.080400
     36 C96        160.1570   144.4260   140.6290 c3         1 E87      -0.075400
     37 C97        164.5020   148.7240   140.5280 c3         1 E87      -0.076400
     38 C98        161.1260   144.8030   141.7690 c3         1 E87      -0.090100
     39 C99        163.5080   147.8800   141.3490 c3         1 E87      -0.090100
     40 CA1        162.7790   149.0900   127.8450 c          1 E87       0.596100
     41 CA2        160.6910   150.3540   127.8830 c3         1 E87       0.140600
     42 CA3        163.7310   148.2970   128.7470 c3         1 E87      -0.129400
     43 CA4        161.0350   151.8770   127.7980 c3         1 E87       0.165300
     44 CA5        165.1610   148.8960   128.7430 c3         1 E87      -0.069400
     45 CA6        162.2160   152.2870   126.8640 c3         1 E87       0.027600
     46 CA7        166.0990   148.3510   129.8480 c3         1 E87      -0.070400
     47 CA8        165.7100   148.7870   131.2820 c3         1 E87      -0.078400
     48 CA9        166.7870   148.4460   132.3340 c3         1 E87      -0.075400
     49 CB2        166.4070   148.8980   133.7630 c3         1 E87      -0.076400
     50 CB3        167.5580   148.7050   134.7800 c3         1 E87      -0.072400
     51 CB4        167.2420   149.2200   136.2040 c3         1 E87      -0.073400
     52 H1         160.6500   158.3080   130.6450 hc         1 E87       0.053200
     53 H2         159.9850   156.6720   130.3760 hc         1 E87       0.053200
     54 H3         164.1820   152.0110   138.8870 hc         1 E87       0.032367
     55 H4         162.6630   151.7520   138.0060 hc         1 E87       0.032367
     56 H5         164.0990   152.3680   137.1510 hc         1 E87       0.032367
     57 H6         162.3560   155.7830   130.8750 hc         1 E87       0.056700
     58 H7         162.7800   157.4110   131.3930 hc         1 E87       0.056700
     59 H8         162.8550   154.9370   133.2580 hc         1 E87       0.042200
     60 H9         163.1870   156.5580   133.8570 hc         1 E87       0.042200
     61 H10        163.1240   153.8510   135.5710 hc         1 E87       0.039700
     62 H11        163.6190   155.4380   136.1630 hc         1 E87       0.039700
     63 H12        161.7330   155.4030   137.8260 hc         1 E87       0.036200
     64 H13        161.2640   153.8010   137.2720 hc         1 E87       0.036200
     65 H14        160.0550   155.8670   128.4250 hn         1 E87       0.304500
     66 H15        161.9690   156.8640   126.3410 h1         1 E87       0.112700
     67 H16        160.1440   156.9390   124.6710 h1         1 E87       0.023200
     68 H17        158.9550   156.5450   125.9240 h1         1 E87       0.023200
     69 H18        159.0680   158.8140   125.5230 ho         1 E87       0.442000
     70 H19        160.2740   154.3280   126.4170 h1         1 E87       0.060200
     71 H20        161.3280   154.8070   125.0700 h1         1 E87       0.060200
     72 H21        163.0570   153.3640   131.5750 hc         1 E87       0.071700
     73 H22        161.3000   153.6210   131.2580 hc         1 E87       0.071700
     74 H23        161.6670   152.3650   133.3370 hc         1 E87       0.043700
     75 H24        160.7290   151.4570   132.1570 hc         1 E87       0.043700
     76 H25        160.9360   157.3300   133.1180 hc         1 E87       0.033700
     77 H26        160.5260   155.7000   132.5920 hc         1 E87       0.033700
     78 H27        162.6900   150.0870   131.5470 hc         1 E87       0.052200
     79 H28        163.7450   151.0440   132.5800 hc         1 E87       0.052200
     80 H29        161.3670   149.4060   133.6150 hc         1 E87       0.040200
     81 H30        163.0000   148.7700   133.4730 hc         1 E87       0.040200
     82 H31        161.3420   156.3480   135.5180 hc         1 E87       0.035200
     83 H32        160.9160   154.7600   134.8800 hc         1 E87       0.035200
     84 H33        163.8430   150.5650   135.0230 hc         1 E87       0.038700
     85 H34        162.1980   151.1420   135.2590 hc         1 E87       0.038700
     86 H35        163.1210   148.2940   135.8910 hc         1 E87       0.041700
     87 H36        163.1290   149.5990   137.0660 hc         1 E87       0.041700
     88 H37        160.6430   149.8620   136.7960 hc         1 E87       0.036700
     89 H38        160.6150   148.5000   135.6820 hc         1 E87       0.036700
     90 H39        163.9900   154.4830   138.5210 hc         1 E87       0.036700
     91 H40        162.6170   153.8390   139.4110 hc         1 E87       0.036700
     92 H41        161.5860   148.3320   138.5880 hc         1 E87       0.038200
     93 H42        159.9450   147.9750   138.0720 hc         1 E87       0.038200
     94 H43        160.6850   146.0670   136.7130 hc         1 E87       0.037200
     95 H44        162.3770   146.4610   136.9680 hc         1 E87       0.037200
     96 H45        165.3500   148.1760   136.4210 hc         1 E87       0.037700
     97 H46        166.7140   147.3430   137.1550 hc         1 E87       0.037700
     98 H47        161.7580   144.5630   138.3530 hc         1 E87       0.038700
     99 H48        162.2380   145.9260   139.3500 hc         1 E87       0.038700
    100 H49        166.8040   149.0960   138.9590 hc         1 E87       0.036700
    101 H50        165.4410   149.9270   138.2120 hc         1 E87       0.036700
    102 H51        159.8320   146.4220   139.8640 hc         1 E87       0.037200
    103 H52        159.3240   145.1430   138.7670 hc         1 E87       0.037200
    104 H53        164.0110   147.8750   138.5930 hc         1 E87       0.039200
    105 H54        165.3730   147.0930   139.3900 hc         1 E87       0.039200
    106 H55        160.4240   143.4350   140.2410 hc         1 E87       0.036200
    107 H56        159.1470   144.3360   141.0470 hc         1 E87       0.036200
    108 H57        165.4010   148.8990   141.1320 hc         1 E87       0.036700
    109 H58        164.0540   149.7060   140.3300 hc         1 E87       0.036700
    110 H59        161.0340   144.0900   142.5970 hc         1 E87       0.030700
    111 H60        162.1670   144.7870   141.4260 hc         1 E87       0.030700
    112 H61        160.9020   145.8050   142.1540 hc         1 E87       0.030700
    113 H62        163.3060   148.3610   142.3130 hc         1 E87       0.031700
    114 H63        162.5550   147.7760   140.8170 hc         1 E87       0.031700
    115 H64        163.9120   146.8790   141.5420 hc         1 E87       0.031700
    116 H65        159.7530   150.2670   128.4460 h1         1 E87       0.073700
    117 H66        160.4880   149.9600   126.8780 h1         1 E87       0.073700
    118 H67        163.3350   148.3070   129.7680 hc         1 E87       0.073200
    119 H68        163.7820   147.2640   128.3870 hc         1 E87       0.073200
    120 H69        160.1430   152.3260   127.3440 h1         1 E87       0.064700
    121 H70        165.6180   148.7020   127.7640 hc         1 E87       0.055700
    122 H71        165.1060   149.9860   128.8400 hc         1 E87       0.055700
    123 H72        161.9500   152.0560   125.8250 h1         1 E87       0.093700
    124 H73        163.1110   151.7020   127.1010 h1         1 E87       0.093700
    125 H74        166.1350   147.2560   129.7930 hc         1 E87       0.038700
    126 H75        167.1140   148.7090   129.6360 hc         1 E87       0.038700
    127 H76        165.5390   149.8710   131.2900 hc         1 E87       0.044200
    128 H77        164.7660   148.3100   131.5710 hc         1 E87       0.044200
    129 H78        166.9680   147.3640   132.3340 hc         1 E87       0.035200
    130 H79        167.7290   148.9290   132.0450 hc         1 E87       0.035200
    131 H80        166.1270   149.9590   133.7410 hc         1 E87       0.038700
    132 H81        165.5220   148.3400   134.0900 hc         1 E87       0.038700
    133 H82        167.8360   147.6450   134.8270 hc         1 E87       0.037700
    134 H83        168.4410   149.2430   134.4110 hc         1 E87       0.037700
    135 H84        168.1820   149.2920   136.7650 hc         1 E87       0.037200
    136 H85        166.8420   150.2400   136.1350 hc         1 E87       0.037200
    137 OB1        161.7180   149.5890   128.5570 os         1 E87      -0.439100
@<TRIPOS>BOND
     1     1     3 1   
     2     1    13 1   
     3     1    52 1   
     4     1    53 1   
     5     2    24 1   
     6     2    54 1   
     7     2    55 1   
     8     2    56 1   
     9     3    17 1   
    10     3    57 1   
    11     3    58 1   
    12     4    17 1   
    13     4    20 1   
    14     4    59 1   
    15     4    60 1   
    16     5     6 1   
    17     5    20 1   
    18     5    61 1   
    19     5    62 1   
    20     6    24 1   
    21     6    63 1   
    22     6    64 1   
    23     7     8 1   
    24     7    13 1   
    25     7    65 1   
    26     8     9 1   
    27     8    11 1   
    28     8    66 1   
    29     9    10 1   
    30     9    67 1   
    31     9    68 1   
    32    10    69 1   
    33    11    12 1   
    34    11    70 1   
    35    11    71 1   
    36    12    45 1   
    37    13    28 2   
    38    14    15 1   
    39    14    26 2   
    40    14    29 1   
    41    15    16 1   
    42    15    72 1   
    43    15    73 1   
    44    16    18 1   
    45    16    74 1   
    46    16    75 1   
    47    17    76 1   
    48    17    77 1   
    49    18    19 1   
    50    18    78 1   
    51    18    79 1   
    52    19    21 1   
    53    19    80 1   
    54    19    81 1   
    55    20    82 1   
    56    20    83 1   
    57    21    22 1   
    58    21    84 1   
    59    21    85 1   
    60    22    23 1   
    61    22    86 1   
    62    22    87 1   
    63    23    25 1   
    64    23    88 1   
    65    23    89 1   
    66    24    90 1   
    67    24    91 1   
    68    25    30 1   
    69    25    92 1   
    70    25    93 1   
    71    27    40 2   
    72    29    43 1   
    73    30    32 1   
    74    30    94 1   
    75    30    95 1   
    76    31    33 1   
    77    31    51 1   
    78    31    96 1   
    79    31    97 1   
    80    32    34 1   
    81    32    98 1   
    82    32    99 1   
    83    33    35 1   
    84    33   100 1   
    85    33   101 1   
    86    34    36 1   
    87    34   102 1   
    88    34   103 1   
    89    35    37 1   
    90    35   104 1   
    91    35   105 1   
    92    36    38 1   
    93    36   106 1   
    94    36   107 1   
    95    37    39 1   
    96    37   108 1   
    97    37   109 1   
    98    38   110 1   
    99    38   111 1   
   100    38   112 1   
   101    39   113 1   
   102    39   114 1   
   103    39   115 1   
   104    40    42 1   
   105    40   137 1   
   106    41    43 1   
   107    41   116 1   
   108    41   117 1   
   109    41   137 1   
   110    42    44 1   
   111    42   118 1   
   112    42   119 1   
   113    43    45 1   
   114    43   120 1   
   115    44    46 1   
   116    44   121 1   
   117    44   122 1   
   118    45   123 1   
   119    45   124 1   
   120    46    47 1   
   121    46   125 1   
   122    46   126 1   
   123    47    48 1   
   124    47   127 1   
   125    47   128 1   
   126    48    49 1   
   127    48   129 1   
   128    48   130 1   
   129    49    50 1   
   130    49   131 1   
   131    49   132 1   
   132    50    51 1   
   133    50   133 1   
   134    50   134 1   
   135    51   135 1   
   136    51   136 1   
@<TRIPOS>SUBSTRUCTURE
     1 E87         1 TEMP              0 ****  ****    0 ROOT
