@<TRIPOS>MOLECULE
E87
  137   136     1     0     0
SMALL
abcg2


@<TRIPOS>ATOM
      1 C2         161.0850   156.0260   131.0880 c3         1 E87      -0.154400
      2 C10        162.7090   152.6880   139.8030 c3         1 E87      -0.091100
      3 C3         161.9240   155.7300   132.3280 c3         1 E87      -0.066400
      4 C5         161.8600   155.0920   134.8000 c3         1 E87      -0.075400
      5 C7         161.7810   154.3890   137.2590 c3         1 E87      -0.075400
      6 C8         160.9060   153.8650   138.3990 c3         1 E87      -0.074400
      7 N          161.3030   155.9310   128.6840 ns         1 E87      -0.499900
      8 CA         161.8580   156.1300   127.3580 c3         1 E87       0.121700
      9 C          161.0300   157.1340   126.5640 c3         1 E87       0.147600
     10 O          161.0860   158.3950   127.2270 oh         1 E87      -0.650000
     11 CB         161.9350   154.8050   126.5950 c3         1 E87       0.033600
     12 SG         163.1480   153.6890   127.3740 ss         1 E87      -0.382000
     13 C1         161.9050   156.2910   129.8370 c          1 E87       0.607100
     14 C15        161.8000   151.6670   129.6140 c          1 E87       0.611100
     15 C21        161.3130   152.2610   130.9100 c3         1 E87      -0.137400
     16 C31        161.5760   151.4050   132.1520 c3         1 E87      -0.062400
     17 C4         161.0630   155.3020   133.5140 c3         1 E87      -0.077400
     18 C41        163.0390   151.2960   132.5830 c3         1 E87      -0.079400
     19 C51        163.1940   150.5640   133.9170 c3         1 E87      -0.078400
     20 C6         161.0050   154.5850   135.9590 c3         1 E87      -0.076400
     21 C61        162.8490   151.4170   135.1390 c3         1 E87      -0.078400
     22 C71        162.6380   150.5850   136.4050 c3         1 E87      -0.081400
     23 C81        161.2210   150.0180   136.5160 c3         1 E87      -0.076400
     24 C9         161.6160   153.7550   139.7510 c3         1 E87      -0.073400
     25 CC1        161.0670   148.9580   137.6110 c3         1 E87      -0.075400
     26 O1         162.8390   151.0670   129.4700 o          1 E87      -0.478000
     27 O11        162.9940   148.8340   125.8470 o          1 E87      -0.497000
     28 O2         163.0210   156.8100   129.8780 o          1 E87      -0.595100
     29 O21        160.9230   151.9170   128.6210 os         1 E87      -0.463100
     30 C90        161.5710   147.5780   137.1790 c3         1 E87      -0.076400
     31 C91        166.1260   148.2620   136.2950 c3         1 E87      -0.075400
     32 C92        161.7200   146.5710   138.3190 c3         1 E87      -0.076400
     33 C93        166.0820   149.0850   137.5830 c3         1 E87      -0.076400
     34 C94        160.4150   146.2390   139.0430 c3         1 E87      -0.075400
     35 C95        165.0780   148.5750   138.6130 c3         1 E87      -0.080400
     36 C96        160.5640   145.1700   140.1290 c3         1 E87      -0.075400
     37 C97        164.9960   149.4490   139.8630 c3         1 E87      -0.076400
     38 C98        161.4210   145.6090   141.3160 c3         1 E87      -0.090100
     39 C99        163.9760   148.9470   140.8820 c3         1 E87      -0.090100
     40 CA1        162.7250   148.6780   127.0190 c          1 E87       0.596100
     41 CA2        160.8650   150.1850   126.8880 c3         1 E87       0.140600
     42 CA3        163.5560   147.8850   127.9900 c3         1 E87      -0.129400
     43 CA4        161.2210   151.6240   127.2340 c3         1 E87       0.165300
     44 CA5        164.9780   148.4660   128.0670 c3         1 E87      -0.069400
     45 CA6        162.6110   152.0610   126.7700 c3         1 E87       0.027600
     46 CA7        165.8380   147.8300   129.1610 c3         1 E87      -0.070400
     47 CA8        165.4810   148.2780   130.5790 c3         1 E87      -0.078400
     48 CA9        166.4560   147.7550   131.6320 c3         1 E87      -0.075400
     49 CB2        166.2320   148.3440   133.0230 c3         1 E87      -0.076400
     50 CB3        167.3210   147.9560   134.0240 c3         1 E87      -0.072400
     51 CB4        167.2500   148.7030   135.3590 c3         1 E87      -0.073400
     52 H1         160.4740   156.9190   131.2620 hc         1 E87       0.053200
     53 H2         160.3850   155.2100   130.8970 hc         1 E87       0.053200
     54 H3         163.1570   152.6320   140.7970 hc         1 E87       0.032367
     55 H4         162.3020   151.7020   139.5650 hc         1 E87       0.032367
     56 H5         163.5100   152.8940   139.0900 hc         1 E87       0.032367
     57 H6         162.6490   154.9420   132.1040 hc         1 E87       0.056700
     58 H7         162.5070   156.6150   132.5920 hc         1 E87       0.056700
     59 H8         162.6700   154.3810   134.6110 hc         1 E87       0.042200
     60 H9         162.3380   156.0350   135.0870 hc         1 E87       0.042200
     61 H10        162.6130   153.7030   137.0810 hc         1 E87       0.039700
     62 H11        162.2270   155.3450   137.5610 hc         1 E87       0.039700
     63 H12        160.0430   154.5310   138.5080 hc         1 E87       0.036200
     64 H13        160.5040   152.8840   138.1210 hc         1 E87       0.036200
     65 H14        160.4010   155.4840   128.7420 hn         1 E87       0.304500
     66 H15        162.8590   156.5410   127.4960 h1         1 E87       0.112700
     67 H16        161.4390   157.2120   125.5510 h1         1 E87       0.023200
     68 H17        159.9950   156.7790   126.4920 h1         1 E87       0.023200
     69 H18        160.4660   158.9940   126.7940 ho         1 E87       0.442000
     70 H19        160.9540   154.3280   126.6020 h1         1 E87       0.060200
     71 H20        162.2210   154.9870   125.5600 h1         1 E87       0.060200
     72 H21        161.8300   153.2200   131.0070 hc         1 E87       0.071700
     73 H22        160.2520   152.4860   130.8150 hc         1 E87       0.071700
     74 H23        160.9930   151.8410   132.9670 hc         1 E87       0.043700
     75 H24        161.1740   150.4000   131.9910 hc         1 E87       0.043700
     76 H25        160.2860   156.0540   133.6900 hc         1 E87       0.033700
     77 H26        160.5390   154.3740   133.2600 hc         1 E87       0.033700
     78 H27        163.6040   150.7790   131.8080 hc         1 E87       0.052200
     79 H28        163.4690   152.3020   132.6640 hc         1 E87       0.052200
     80 H29        162.5650   149.6670   133.9010 hc         1 E87       0.040200
     81 H30        164.2200   150.2080   134.0270 hc         1 E87       0.040200
     82 H31        160.1820   155.2880   136.1330 hc         1 E87       0.035200
     83 H32        160.5390   153.6360   135.6720 hc         1 E87       0.035200
     84 H33        163.6530   152.1420   135.2940 hc         1 E87       0.038700
     85 H34        161.9470   152.0050   134.9470 hc         1 E87       0.038700
     86 H35        163.3700   149.7750   136.4220 hc         1 E87       0.041700
     87 H36        162.8360   151.1920   137.2910 hc         1 E87       0.041700
     88 H37        160.5360   150.8510   136.7040 hc         1 E87       0.036700
     89 H38        160.9170   149.5850   135.5560 hc         1 E87       0.036700
     90 H39        162.0430   154.7300   140.0100 hc         1 E87       0.036700
     91 H40        160.8710   153.5330   140.5210 hc         1 E87       0.036700
     92 H41        161.6110   149.2830   138.5050 hc         1 E87       0.038200
     93 H42        160.0170   148.8840   137.9040 hc         1 E87       0.038200
     94 H43        160.8870   147.1760   136.4220 hc         1 E87       0.037200
     95 H44        162.5400   147.6880   136.6830 hc         1 E87       0.037200
     96 H45        165.1590   148.3360   135.7880 hc         1 E87       0.037700
     97 H46        166.2630   147.2030   136.5440 hc         1 E87       0.037700
     98 H47        162.1450   145.6420   137.9210 hc         1 E87       0.038700
     99 H48        162.4490   146.9580   139.0350 hc         1 E87       0.038700
    100 H49        167.0820   149.1020   138.0320 hc         1 E87       0.036700
    101 H50        165.8430   150.1250   137.3320 hc         1 E87       0.036700
    102 H51        160.0010   147.1450   139.4960 hc         1 E87       0.037200
    103 H52        159.6800   145.9000   138.3040 hc         1 E87       0.037200
    104 H53        164.0880   148.5170   138.1570 hc         1 E87       0.039200
    105 H54        165.3420   147.5510   138.9020 hc         1 E87       0.039200
    106 H55        160.9920   144.2640   139.6840 hc         1 E87       0.036200
    107 H56        159.5700   144.8930   140.4920 hc         1 E87       0.036200
    108 H57        165.9860   149.5050   140.3300 hc         1 E87       0.036700
    109 H58        164.7390   150.4710   139.5650 hc         1 E87       0.036700
    110 H59        161.4500   144.8370   142.0880 hc         1 E87       0.030700
    111 H60        162.4500   145.8180   141.0180 hc         1 E87       0.030700
    112 H61        161.0180   146.5200   141.7680 hc         1 E87       0.030700
    113 H62        163.9380   149.5940   141.7610 hc         1 E87       0.031700
    114 H63        162.9750   148.9140   140.4470 hc         1 E87       0.031700
    115 H64        164.2210   147.9360   141.2190 hc         1 E87       0.031700
    116 H65        159.8350   149.9920   127.1800 h1         1 E87       0.073700
    117 H66        160.9760   150.0320   125.8150 h1         1 E87       0.073700
    118 H67        163.0750   147.8930   128.9660 hc         1 E87       0.073200
    119 H68        163.6030   146.8520   127.6370 hc         1 E87       0.073200
    120 H69        160.4810   152.2270   126.7070 h1         1 E87       0.064700
    121 H70        165.4560   148.3340   127.0950 hc         1 E87       0.055700
    122 H71        164.9140   149.5430   128.2460 hc         1 E87       0.055700
    123 H72        162.6100   152.0530   125.6800 h1         1 E87       0.093700
    124 H73        163.3830   151.3820   127.1160 h1         1 E87       0.093700
    125 H74        165.7810   146.7380   129.0890 hc         1 E87       0.038700
    126 H75        166.8820   148.0970   128.9720 hc         1 E87       0.038700
    127 H76        165.4830   149.3740   130.6090 hc         1 E87       0.044200
    128 H77        164.4620   147.9690   130.8340 hc         1 E87       0.044200
    129 H78        166.3980   146.6610   131.6780 hc         1 E87       0.035200
    130 H79        167.4770   147.9930   131.3120 hc         1 E87       0.035200
    131 H80        166.2080   149.4370   132.9400 hc         1 E87       0.038700
    132 H81        165.2470   148.0460   133.3950 hc         1 E87       0.038700
    133 H82        167.2880   146.8750   134.2060 hc         1 E87       0.037700
    134 H83        168.2930   148.1580   133.5620 hc         1 E87       0.037700
    135 H84        168.2020   148.5790   135.8870 hc         1 E87       0.037200
    136 H85        167.1510   149.7770   135.1580 hc         1 E87       0.037200
    137 OB1        161.6560   149.2320   127.6150 os         1 E87      -0.439100
@<TRIPOS>BOND
     1     1     3 1   
     2     1    13 1   
     3     1    52 1   
     4     1    53 1   
     5     2    24 1   
     6     2    54 1   
     7     2    55 1   
     8     2    56 1   
     9     3    17 1   
    10     3    57 1   
    11     3    58 1   
    12     4    17 1   
    13     4    20 1   
    14     4    59 1   
    15     4    60 1   
    16     5     6 1   
    17     5    20 1   
    18     5    61 1   
    19     5    62 1   
    20     6    24 1   
    21     6    63 1   
    22     6    64 1   
    23     7     8 1   
    24     7    13 1   
    25     7    65 1   
    26     8     9 1   
    27     8    11 1   
    28     8    66 1   
    29     9    10 1   
    30     9    67 1   
    31     9    68 1   
    32    10    69 1   
    33    11    12 1   
    34    11    70 1   
    35    11    71 1   
    36    12    45 1   
    37    13    28 2   
    38    14    15 1   
    39    14    26 2   
    40    14    29 1   
    41    15    16 1   
    42    15    72 1   
    43    15    73 1   
    44    16    18 1   
    45    16    74 1   
    46    16    75 1   
    47    17    76 1   
    48    17    77 1   
    49    18    19 1   
    50    18    78 1   
    51    18    79 1   
    52    19    21 1   
    53    19    80 1   
    54    19    81 1   
    55    20    82 1   
    56    20    83 1   
    57    21    22 1   
    58    21    84 1   
    59    21    85 1   
    60    22    23 1   
    61    22    86 1   
    62    22    87 1   
    63    23    25 1   
    64    23    88 1   
    65    23    89 1   
    66    24    90 1   
    67    24    91 1   
    68    25    30 1   
    69    25    92 1   
    70    25    93 1   
    71    27    40 2   
    72    29    43 1   
    73    30    32 1   
    74    30    94 1   
    75    30    95 1   
    76    31    33 1   
    77    31    51 1   
    78    31    96 1   
    79    31    97 1   
    80    32    34 1   
    81    32    98 1   
    82    32    99 1   
    83    33    35 1   
    84    33   100 1   
    85    33   101 1   
    86    34    36 1   
    87    34   102 1   
    88    34   103 1   
    89    35    37 1   
    90    35   104 1   
    91    35   105 1   
    92    36    38 1   
    93    36   106 1   
    94    36   107 1   
    95    37    39 1   
    96    37   108 1   
    97    37   109 1   
    98    38   110 1   
    99    38   111 1   
   100    38   112 1   
   101    39   113 1   
   102    39   114 1   
   103    39   115 1   
   104    40    42 1   
   105    40   137 1   
   106    41    43 1   
   107    41   116 1   
   108    41   117 1   
   109    41   137 1   
   110    42    44 1   
   111    42   118 1   
   112    42   119 1   
   113    43    45 1   
   114    43   120 1   
   115    44    46 1   
   116    44   121 1   
   117    44   122 1   
   118    45   123 1   
   119    45   124 1   
   120    46    47 1   
   121    46   125 1   
   122    46   126 1   
   123    47    48 1   
   124    47   127 1   
   125    47   128 1   
   126    48    49 1   
   127    48   129 1   
   128    48   130 1   
   129    49    50 1   
   130    49   131 1   
   131    49   132 1   
   132    50    51 1   
   133    50   133 1   
   134    50   134 1   
   135    51   135 1   
   136    51   136 1   
@<TRIPOS>SUBSTRUCTURE
     1 E87         1 TEMP              0 ****  ****    0 ROOT
