@<TRIPOS>MOLECULE
E88
   49    51     1     0     0
SMALL
bcc


@<TRIPOS>ATOM
      1 N1          -2.1140    -1.0470    -0.6600 nu         1 E88      -0.800900
      2 C5          -4.1060    -2.4280    -0.8310 c3         1 E88      -0.047700
      3 C7          -5.6220    -2.4020    -0.9910 c3         1 E88      -0.077600
      4 C15         -3.9180    -0.6490     1.0070 c          1 E88       0.926600
      5 C21         -1.1790     2.3190    -0.3610 ca         1 E88       0.505600
      6 C22          0.2290     2.2300    -0.2760 ca         1 E88      -0.366600
      7 C28          4.2470    -0.2610    -0.0640 ca         1 E88      -0.181000
      8 O17         -5.0570    -0.1620     1.1600 o          1 E88      -0.826800
      9 O16         -3.0750    -0.8730     1.8930 o          1 E88      -0.826800
     10 C3          -3.5430    -1.0470    -0.4430 c3         1 E88       0.083500
     11 C11         -3.6960    -3.5430     0.1290 c3         1 E88      -0.077600
     12 C19         -1.3730     0.0670    -0.5050 ca         1 E88       0.961900
     13 N24         -0.0360    -0.1480    -0.4310 nb         1 E88      -0.844000
     14 C23          0.7550     0.8840    -0.3160 ca         1 E88       0.754200
     15 C43          0.9970     3.4030    -0.1690 ca         1 E88      -0.075000
     16 C45          0.3950     4.6370    -0.1400 ca         1 E88      -0.190000
     17 C47         -1.0040     4.7290    -0.2190 ca         1 E88      -0.108000
     18 C49         -1.7740     3.6000    -0.3270 ca         1 E88      -0.192300
     19 N20         -1.9750     1.2340    -0.4750 nb         1 E88      -0.771000
     20 N25          2.0940     0.7050    -0.2280 nu         1 E88      -0.748300
     21 C27          2.8760    -0.4520    -0.2690 ca         1 E88       0.186600
     22 C35          2.3960    -1.7410    -0.5030 ca         1 E88      -0.142000
     23 C33          3.2960    -2.8000    -0.5260 ca         1 E88      -0.107000
     24 C31          4.6510    -2.6060    -0.3180 ca         1 E88      -0.175000
     25 C30          5.1390    -1.3200    -0.0880 ca         1 E88      -0.066300
     26 C37          6.6210    -1.1000     0.1010 c3         1 E88       0.200100
     27 N40          6.9200     0.1330     0.8020 n8         1 E88      -0.889800
     28 H1          -1.6140    -1.9040    -0.4830 hn         1 E88       0.425800
     29 H2          -3.6790    -2.6610    -1.8140 hc         1 E88       0.011700
     30 H3          -5.9320    -1.6390    -1.7070 hc         1 E88       0.028033
     31 H4          -5.9800    -3.3660    -1.3560 hc         1 E88       0.028033
     32 H5          -6.1220    -2.1920    -0.0470 hc         1 E88       0.028033
     33 H6           4.6270     0.7370     0.1260 ha         1 E88       0.141000
     34 H8          -3.9840    -0.3130    -1.1230 h1         1 E88       0.066700
     35 H9          -4.1010    -3.3820     1.1290 hc         1 E88       0.028033
     36 H10         -4.0740    -4.5020    -0.2290 hc         1 E88       0.028033
     37 H11         -2.6140    -3.6470     0.2280 hc         1 E88       0.028033
     38 H12          2.0780     3.3670    -0.1130 ha         1 E88       0.104000
     39 H13          0.9970     5.5310    -0.0580 ha         1 E88       0.115000
     40 H14         -1.4780     5.7030    -0.1950 ha         1 E88       0.117000
     41 H15         -2.8530     3.6650    -0.3890 ha         1 E88       0.154000
     42 H16          2.6380     1.5400    -0.0880 hn         1 E88       0.437800
     43 H17          1.3460    -1.9190    -0.6570 ha         1 E88       0.180000
     44 H18          2.9190    -3.7990    -0.7040 ha         1 E88       0.126000
     45 H19          5.3300    -3.4500    -0.3290 ha         1 E88       0.117000
     46 H20          7.0430    -1.9960     0.5760 h1         1 E88       0.028700
     47 H21          7.0870    -1.0440    -0.8870 h1         1 E88       0.028700
     48 H22          6.6730     0.0410     1.7790 hn         1 E88       0.337800
     49 H23          7.9180     0.2950     0.7800 hn         1 E88       0.337800
@<TRIPOS>BOND
     1     1    10 1   
     2     1    12 1   
     3     1    28 1   
     4     2     3 1   
     5     2    10 1   
     6     2    11 1   
     7     2    29 1   
     8     3    30 1   
     9     3    31 1   
    10     3    32 1   
    11     4     8 1   
    12     4     9 1   
    13     4    10 1   
    14     5     6 ar  
    15     5    18 ar  
    16     5    19 ar  
    17     6    14 ar  
    18     6    15 ar  
    19     7    21 ar  
    20     7    25 ar  
    21     7    33 1   
    22    10    34 1   
    23    11    35 1   
    24    11    36 1   
    25    11    37 1   
    26    12    13 ar  
    27    12    19 ar  
    28    13    14 ar  
    29    14    20 1   
    30    15    16 ar  
    31    15    38 1   
    32    16    17 ar  
    33    16    39 1   
    34    17    18 ar  
    35    17    40 1   
    36    18    41 1   
    37    20    21 1   
    38    20    42 1   
    39    21    22 ar  
    40    22    23 ar  
    41    22    43 1   
    42    23    24 ar  
    43    23    44 1   
    44    24    25 ar  
    45    24    45 1   
    46    25    26 1   
    47    26    27 1   
    48    26    46 1   
    49    26    47 1   
    50    27    48 1   
    51    27    49 1   
@<TRIPOS>SUBSTRUCTURE
     1 E88         1 TEMP              0 ****  ****    0 ROOT
