@<TRIPOS>MOLECULE
E88
   49    51     1     0     0
SMALL
No Charge or Current Charge


@<TRIPOS>ATOM
      1 N1          -2.0710    -1.0000    -0.3920 nu         1 E88      -0.856100
      2 C5          -4.0210    -2.5800    -0.5060 c3         1 E88      -0.047700
      3 C7          -5.5580    -2.6700    -0.6500 c3         1 E88      -0.077600
      4 C15         -4.0560    -0.6220     1.2480 c          1 E88       0.716000
      5 C21         -1.2630     2.4660    -0.5600 ca         1 E88       0.112000
      6 C22          0.1520     2.3990    -0.5490 ca         1 E88      -0.236000
      7 C28          4.2510    -0.0760     0.0360 ca         1 E88      -0.163000
      8 O17         -5.0230     0.1300     1.2790 o          1 E88      -0.721500
      9 O16         -3.4080    -0.9000     2.2520 o          1 E88      -0.721500
     10 C3          -3.5520    -1.1290    -0.1690 c3         1 E88       0.083500
     11 C11         -3.4980    -3.6550     0.4800 c3         1 E88      -0.077600
     12 C19         -1.3330     0.1720    -0.4450 ca         1 E88       0.435900
     13 N24         -0.0070     0.0020    -0.4280 nb         1 E88      -0.318000
     14 C23          0.7390     1.1140    -0.4890 ca         1 E88       0.425900
     15 C43          0.9130     3.5910    -0.6050 ca         1 E88      -0.057000
     16 C45          0.2660     4.8350    -0.6670 ca         1 E88      -0.172000
     17 C47         -1.1350     4.9030    -0.6740 ca         1 E88      -0.090000
     18 C49         -1.8930     3.7220    -0.6220 ca         1 E88      -0.109000
     19 N20         -1.9980     1.3390    -0.5100 nb         1 E88      -0.245000
     20 N25          2.1220     0.9470    -0.4350 nu         1 E88      -0.941900
     21 C27          2.9840    -0.1460    -0.5690 ca         1 E88       0.325000
     22 C35          2.6460    -1.2880    -1.3210 ca         1 E88      -0.124000
     23 C33          3.5540    -2.3550    -1.4420 ca         1 E88      -0.089000
     24 C31          4.8100    -2.2810    -0.8200 ca         1 E88      -0.157000
     25 C30          5.1690    -1.1390    -0.0790 ca         1 E88      -0.066300
     26 C37          6.5380    -1.0500     0.5870 c3         1 E88       0.200100
     27 N40          6.4900    -1.4930     1.9920 n8         1 E88      -1.000200
     28 H1          -1.5080    -1.8340    -0.2420 hn         1 E88       0.481000
     29 H2          -3.6090    -2.8290    -1.4930 hc         1 E88       0.011700
     30 H3          -5.9230    -1.9400    -1.3840 hc         1 E88       0.028033
     31 H4          -5.8560    -3.6680    -0.9920 hc         1 E88       0.028033
     32 H5          -6.0570    -2.4750     0.3070 hc         1 E88       0.028033
     33 H6           4.5250     0.8050     0.6090 ha         1 E88       0.123000
     34 H8          -4.0460    -0.4740    -0.9000 h1         1 E88       0.066700
     35 H9          -3.9270    -3.5170     1.4800 hc         1 E88       0.028033
     36 H10         -3.7730    -4.6580     0.1330 hc         1 E88       0.028033
     37 H11         -2.4060    -3.6200     0.5650 hc         1 E88       0.028033
     38 H12          1.9990     3.5700    -0.6080 ha         1 E88       0.086000
     39 H13          0.8540     5.7500    -0.7100 ha         1 E88       0.097000
     40 H14         -1.6340     5.8690    -0.7220 ha         1 E88       0.099000
     41 H15         -2.9780     3.7810    -0.6290 ha         1 E88       0.136000
     42 H16          2.5990     1.8030    -0.1670 hn         1 E88       0.493000
     43 H17          1.6900    -1.3480    -1.8290 ha         1 E88       0.162000
     44 H18          3.2850    -3.2340    -2.0240 ha         1 E88       0.108000
     45 H19          5.5080    -3.1100    -0.9190 ha         1 E88       0.099000
     46 H20          7.2570    -1.6800     0.0440 h1         1 E88       0.028700
     47 H21          6.9020    -0.0140     0.5550 h1         1 E88       0.028700
     48 H22          6.2020    -2.4780     2.0120 hn         1 E88       0.393000
     49 H23          7.4460    -1.5090     2.3670 hn         1 E88       0.393000
@<TRIPOS>BOND
     1     1    10 1   
     2     1    12 1   
     3     1    28 1   
     4     2     3 1   
     5     2    10 1   
     6     2    11 1   
     7     2    29 1   
     8     3    30 1   
     9     3    31 1   
    10     3    32 1   
    11     4     8 1   
    12     4     9 1   
    13     4    10 1   
    14     5     6 ar  
    15     5    18 ar  
    16     5    19 ar  
    17     6    14 ar  
    18     6    15 ar  
    19     7    21 ar  
    20     7    25 ar  
    21     7    33 1   
    22    10    34 1   
    23    11    35 1   
    24    11    36 1   
    25    11    37 1   
    26    12    13 ar  
    27    12    19 ar  
    28    13    14 ar  
    29    14    20 1   
    30    15    16 ar  
    31    15    38 1   
    32    16    17 ar  
    33    16    39 1   
    34    17    18 ar  
    35    17    40 1   
    36    18    41 1   
    37    20    21 1   
    38    20    42 1   
    39    21    22 ar  
    40    22    23 ar  
    41    22    43 1   
    42    23    24 ar  
    43    23    44 1   
    44    24    25 ar  
    45    24    45 1   
    46    25    26 1   
    47    26    27 1   
    48    26    46 1   
    49    26    47 1   
    50    27    48 1   
    51    27    49 1   
@<TRIPOS>SUBSTRUCTURE
     1 E88         1 TEMP              0 ****  ****    0 ROOT
