@<TRIPOS>MOLECULE
E89
   42    45     1     0     0
SMALL
bcc


@<TRIPOS>ATOM
      1 C2          -0.8740    -0.0370    -3.9810 ca         1 E89      -0.053000
      2 C3           0.3430     0.0050    -3.3020 ca         1 E89      -0.203600
      3 C7           1.5780    -0.1660    -4.0560 c          1 E89       0.733100
      4 O24          1.6490    -0.3430    -5.2610 o          1 E89      -0.620500
      5 N8           2.7150    -0.1140    -3.2860 ns         1 E89      -0.520400
      6 C9           2.7110     0.0790    -1.9280 cc         1 E89       0.705800
      7 N25          3.9240     0.1470    -1.3380 nv         1 E89      -0.923800
      8 N10          1.6300     0.2330    -1.2410 nd         1 E89      -0.701100
      9 C4           0.4240     0.2050    -1.8990 ca         1 E89       0.197400
     10 C5          -0.7420     0.3760    -1.1360 ca         1 E89      -0.026300
     11 C14         -0.6810     0.5650     0.3470 c3         1 E89      -0.013100
     12 C15         -0.4710    -0.7630     1.0900 c3         1 E89      -0.019100
     13 C16         -0.2730    -0.5570     2.5640 ca         1 E89      -0.109300
     14 C21         -1.3350    -0.6300     3.4640 ca         1 E89      -0.089500
     15 C20         -1.1540    -0.4010     4.8170 ca         1 E89      -0.189500
     16 C19          0.1120    -0.0860     5.3130 ca         1 E89       0.133100
     17 O22          0.2020     0.1200     6.6440 os         1 E89      -0.320900
     18 C23          1.4630     0.4440     7.1900 c3         1 E89       0.126700
     19 C18          1.1860    -0.0070     4.4290 ca         1 E89      -0.189500
     20 C17          0.9810    -0.2420     3.0750 ca         1 E89      -0.089500
     21 C6          -1.9530     0.3250    -1.8180 ca         1 E89       0.110400
     22 N13         -3.2290     0.4530    -1.3190 nc         1 E89      -0.584100
     23 C12         -4.0080     0.3340    -2.3580 cd         1 E89       0.435700
     24 N11         -3.3440     0.1370    -3.5180 na         1 E89      -0.272300
     25 C1          -2.0050     0.1230    -3.2160 ca         1 E89      -0.109200
     26 H2          -0.9130    -0.1890    -5.0510 ha         1 E89       0.157000
     27 HN8          3.5970    -0.2240    -3.7700 hn         1 E89       0.324500
     28 H251         3.9270     0.0920    -0.3330 hn         1 E89       0.432300
     29 H252         4.7190    -0.2760    -1.7880 hn         1 E89       0.432300
     30 H141        -1.6040     1.0300     0.6990 hc         1 E89       0.062700
     31 H142         0.1380     1.2420     0.5970 hc         1 E89       0.062700
     32 H151         0.4000    -1.2680     0.6670 hc         1 E89       0.049700
     33 H152        -1.3330    -1.4130     0.9150 hc         1 E89       0.049700
     34 H21         -2.3270    -0.8770     3.1030 ha         1 E89       0.130500
     35 H20         -1.9920    -0.4670     5.5000 ha         1 E89       0.136000
     36 H231         1.3170     0.5610     8.2610 h1         1 E89       0.038033
     37 H232         2.1990    -0.3460     7.0210 h1         1 E89       0.038033
     38 H233         1.8560     1.3810     6.7850 h1         1 E89       0.038033
     39 H18          2.1840     0.2310     4.7730 ha         1 E89       0.136000
     40 H17          1.8280    -0.1790     2.4000 ha         1 E89       0.130500
     41 H12         -5.0860     0.3830    -2.3330 h5         1 E89       0.061800
     42 H11         -3.7630     0.0180    -4.4260 hn         1 E89       0.310700
@<TRIPOS>BOND
     1     1     2 ar  
     2     1    25 ar  
     3     1    26 1   
     4     2     3 1   
     5     2     9 ar  
     6     3     4 2   
     7     3     5 1   
     8     5     6 1   
     9     5    27 1   
    10     6     7 1   
    11     6     8 2   
    12     7    28 1   
    13     7    29 1   
    14     8     9 1   
    15     9    10 ar  
    16    10    11 1   
    17    10    21 ar  
    18    11    12 1   
    19    11    30 1   
    20    11    31 1   
    21    12    13 1   
    22    12    32 1   
    23    12    33 1   
    24    13    14 ar  
    25    13    20 ar  
    26    14    15 ar  
    27    14    34 1   
    28    15    16 ar  
    29    15    35 1   
    30    16    17 1   
    31    16    19 ar  
    32    17    18 1   
    33    18    36 1   
    34    18    37 1   
    35    18    38 1   
    36    19    20 ar  
    37    19    39 1   
    38    20    40 1   
    39    21    22 1   
    40    21    25 ar  
    41    22    23 2   
    42    23    24 1   
    43    23    41 1   
    44    24    25 1   
    45    24    42 1   
@<TRIPOS>SUBSTRUCTURE
     1 E89         1 TEMP              0 ****  ****    0 ROOT
