@<TRIPOS>MOLECULE
E89
   42    45     1     0     0
SMALL
No Charge or Current Charge


@<TRIPOS>ATOM
      1 C2          -0.9330    -0.0830    -3.9590 ca         1 E89      -0.035000
      2 C3           0.3620     0.0070    -3.4060 ca         1 E89      -0.203600
      3 C7           1.5600    -0.1300    -4.2740 c          1 E89       0.590600
      4 O24          1.5160    -0.3120    -5.4820 o          1 E89      -0.545000
      5 N8           2.7270    -0.0330    -3.6120 ns         1 E89      -0.453400
      6 C9           2.8130     0.1750    -2.2890 cc         1 E89       0.705800
      7 N25          4.0370     0.2420    -1.7950 nv         1 E89      -1.034200
      8 N10          1.8350     0.3160    -1.4330 nd         1 E89      -0.701100
      9 C4           0.5490     0.2280    -2.0140 ca         1 E89       0.197400
     10 C5          -0.5960     0.3640    -1.1730 ca         1 E89      -0.026300
     11 C14         -0.4680     0.5970     0.3380 c3         1 E89      -0.013100
     12 C15         -0.3590    -0.7240     1.1260 c3         1 E89      -0.019100
     13 C16         -0.2470    -0.4910     2.6270 ca         1 E89      -0.109300
     14 C21         -1.4050    -0.4330     3.4250 ca         1 E89      -0.071500
     15 C20         -1.2990    -0.2120     4.8090 ca         1 E89      -0.171500
     16 C19         -0.0410    -0.0460     5.4090 ca         1 E89       0.133100
     17 O22          0.0000     0.1690     6.7720 os         1 E89      -0.344100
     18 C23          1.2380     0.3520     7.4820 c3         1 E89       0.149900
     19 C18          1.1220    -0.1000     4.6110 ca         1 E89      -0.171500
     20 C17          1.0160    -0.3220     3.2260 ca         1 E89      -0.071500
     21 C6          -1.8760     0.2630    -1.7580 ca         1 E89       0.110400
     22 N13         -3.1150     0.3510    -1.1360 nc         1 E89      -0.584100
     23 C12         -3.9810     0.1830    -2.1560 cd         1 E89       0.435700
     24 N11         -3.3540    -0.0070    -3.3930 na         1 E89      -0.322600
     25 C1          -2.0210     0.0500    -3.0960 ca         1 E89      -0.109200
     26 H2          -1.0860    -0.2540    -5.0240 ha         1 E89       0.139000
     27 HN8          3.5680    -0.0970    -4.1600 hn         1 E89       0.324500
     28 H251         4.0590     0.2180    -0.7840 hn         1 E89       0.487500
     29 H252         4.7520    -0.3050    -2.2560 hn         1 E89       0.487500
     30 H141        -1.3310     1.1600     0.7110 hc         1 E89       0.062700
     31 H142         0.4020     1.2250     0.5640 hc         1 E89       0.062700
     32 H151         0.5110    -1.2870     0.7650 hc         1 E89       0.049700
     33 H152        -1.2360    -1.3450     0.9040 hc         1 E89       0.049700
     34 H21         -2.3870    -0.5580     2.9730 ha         1 E89       0.112500
     35 H20         -2.1970    -0.1690     5.4190 ha         1 E89       0.118000
     36 H231         1.0430     0.5060     8.5510 h1         1 E89       0.038033
     37 H232         1.8820    -0.5310     7.3780 h1         1 E89       0.038033
     38 H233         1.7780     1.2290     7.1050 h1         1 E89       0.038033
     39 H18          2.1110     0.0260     5.0430 ha         1 E89       0.118000
     40 H17          1.9170    -0.3600     2.6170 ha         1 E89       0.112500
     41 H12         -5.0620     0.1870    -2.0730 h5         1 E89       0.061800
     42 H11         -3.8060    -0.1510    -4.2880 hn         1 E89       0.361000
@<TRIPOS>BOND
     1     1     2 ar  
     2     1    25 ar  
     3     1    26 1   
     4     2     3 1   
     5     2     9 ar  
     6     3     4 2   
     7     3     5 1   
     8     5     6 1   
     9     5    27 1   
    10     6     7 1   
    11     6     8 2   
    12     7    28 1   
    13     7    29 1   
    14     8     9 1   
    15     9    10 ar  
    16    10    11 1   
    17    10    21 ar  
    18    11    12 1   
    19    11    30 1   
    20    11    31 1   
    21    12    13 1   
    22    12    32 1   
    23    12    33 1   
    24    13    14 ar  
    25    13    20 ar  
    26    14    15 ar  
    27    14    34 1   
    28    15    16 ar  
    29    15    35 1   
    30    16    17 1   
    31    16    19 ar  
    32    17    18 1   
    33    18    36 1   
    34    18    37 1   
    35    18    38 1   
    36    19    20 ar  
    37    19    39 1   
    38    20    40 1   
    39    21    22 1   
    40    21    25 ar  
    41    22    23 2   
    42    23    24 1   
    43    23    41 1   
    44    24    25 1   
    45    24    42 1   
@<TRIPOS>SUBSTRUCTURE
     1 E89         1 TEMP              0 ****  ****    0 ROOT
