@<TRIPOS>MOLECULE
E8B
   43    44     1     0     0
SMALL
No Charge or Current Charge


@<TRIPOS>ATOM
      1 N1          -6.6680    -0.9210    -0.5720 n8         1 E8B      -1.000200
      2 C4          -5.8050    -0.0650    -1.4070 c3         1 E8B       0.198100
      3 C7          -4.6350     0.4960    -0.6080 ca         1 E8B      -0.088300
      4 C8          -3.4750    -0.2790    -0.4100 ca         1 E8B      -0.075000
      5 C10         -2.3650     0.2210     0.3180 cp         1 E8B      -0.041000
      6 C13         -3.6120     2.3120     0.6540 ca         1 E8B      -0.114000
      7 C15         -4.6980     1.7950    -0.0710 ca         1 E8B      -0.109000
      8 C17         -1.1350    -0.6100     0.5240 cp         1 E8B      -0.004000
      9 C20          1.3190    -0.7850     0.7360 ca         1 E8B      -0.022000
     10 C21          1.1990    -2.1800     0.9100 ca         1 E8B      -0.127000
     11 O30          4.1880    -1.6630     1.2480 o          1 E8B      -0.583100
     12 C29          3.8700    -0.5170     0.9490 c          1 E8B       0.608100
     13 C31          4.9200     0.5980     0.8260 c3         1 E8B      -0.157400
     14 C34          5.7970     0.4590    -0.4490 c3         1 E8B      -0.052700
     15 C40          4.9650     0.5560    -1.7490 c3         1 E8B      -0.091100
     16 C36          6.9470     1.4910    -0.4480 c3         1 E8B      -0.091100
     17 N27          2.5640    -0.0960     0.7300 ns         1 E8B      -0.147000
     18 C18          0.1540    -0.0190     0.5430 ca         1 E8B      -0.160000
     19 C23         -0.0670    -2.7870     0.8950 ca         1 E8B      -0.088000
     20 C25         -1.2200    -2.0110     0.7040 ca         1 E8B      -0.124000
     21 C11         -2.4580     1.5340     0.8460 ca         1 E8B      -0.100000
     22 H1          -7.0610    -0.3480     0.1840 hn         1 E8B       0.397000
     23 H2          -7.4900    -1.1990    -1.1210 hn         1 E8B       0.397000
     24 H4          -5.4280    -0.6580    -2.2520 h1         1 E8B       0.034700
     25 H5          -6.4090     0.7590    -1.8120 h1         1 E8B       0.034700
     26 H6          -3.4310    -1.2770    -0.8390 ha         1 E8B       0.135000
     27 H7          -3.6660     3.3160     1.0700 ha         1 E8B       0.112000
     28 H8          -5.5870     2.4050    -0.2160 ha         1 E8B       0.108000
     29 H9           2.0700    -2.8120     1.0540 ha         1 E8B       0.147000
     30 H10          4.4270     1.5780     0.8060 hc         1 E8B       0.058200
     31 H11          5.5760     0.5410     1.7030 hc         1 E8B       0.058200
     32 H12          6.2600    -0.5370    -0.4290 hc         1 E8B       0.069700
     33 H13          4.4490     1.5220    -1.8120 hc         1 E8B       0.035367
     34 H14          5.6110     0.4570    -2.6300 hc         1 E8B       0.035367
     35 H15          4.2130    -0.2410    -1.8000 hc         1 E8B       0.035367
     36 H16          7.5690     1.3800     0.4480 hc         1 E8B       0.035367
     37 H17          7.5920     1.3540    -1.3240 hc         1 E8B       0.035367
     38 H18          6.5540     2.5150    -0.4690 hc         1 E8B       0.035367
     39 H19          2.4810     0.8890     0.5170 hn         1 E8B       0.148000
     40 H20          0.2490     1.0530     0.3920 ha         1 E8B       0.108000
     41 H21         -0.1540    -3.8630     1.0330 ha         1 E8B       0.115000
     42 H22         -2.1910    -2.5020     0.7100 ha         1 E8B       0.120000
     43 H23         -1.6350     1.9490     1.4220 ha         1 E8B       0.113000
@<TRIPOS>BOND
     1     1     2 1   
     2     1    22 1   
     3     1    23 1   
     4     2     3 1   
     5     2    24 1   
     6     2    25 1   
     7     3     4 ar  
     8     3     7 ar  
     9     4     5 ar  
    10     4    26 1   
    11     5     8 1   
    12     5    21 ar  
    13     6     7 ar  
    14     6    21 ar  
    15     6    27 1   
    16     7    28 1   
    17     8    18 ar  
    18     8    20 ar  
    19     9    10 ar  
    20     9    17 1   
    21     9    18 ar  
    22    10    19 ar  
    23    10    29 1   
    24    11    12 2   
    25    12    13 1   
    26    12    17 1   
    27    13    14 1   
    28    13    30 1   
    29    13    31 1   
    30    14    15 1   
    31    14    16 1   
    32    14    32 1   
    33    15    33 1   
    34    15    34 1   
    35    15    35 1   
    36    16    36 1   
    37    16    37 1   
    38    16    38 1   
    39    17    39 1   
    40    18    40 1   
    41    19    20 ar  
    42    19    41 1   
    43    20    42 1   
    44    21    43 1   
@<TRIPOS>SUBSTRUCTURE
     1 E8B         1 TEMP              0 ****  ****    0 ROOT
