@<TRIPOS>MOLECULE
E8B
   43    44     1     0     0
SMALL
abcg2


@<TRIPOS>ATOM
      1 N1          -6.0400    -1.3530    -1.1040 n8         1 E8B      -1.000200
      2 C4          -5.9410     0.0950    -1.1470 c3         1 E8B       0.198100
      3 C7          -4.7500     0.6130    -0.3810 ca         1 E8B      -0.088300
      4 C8          -3.5830    -0.1340    -0.2680 ca         1 E8B      -0.075000
      5 C10         -2.4630     0.3590     0.4040 cp         1 E8B      -0.041000
      6 C13         -3.6860     2.3840     0.8690 ca         1 E8B      -0.114000
      7 C15         -4.7920     1.8770     0.2010 ca         1 E8B      -0.109000
      8 C17         -1.2380    -0.4600     0.5160 cp         1 E8B      -0.004000
      9 C20          1.1900    -0.6100     0.5510 ca         1 E8B      -0.022000
     10 C21          1.1050    -1.9900     0.7410 ca         1 E8B      -0.127000
     11 O30          3.9470    -1.4320     1.0830 o          1 E8B      -0.583100
     12 C29          3.6580    -0.3050     0.7190 c          1 E8B       0.608100
     13 C31          4.7070     0.7710     0.5500 c3         1 E8B      -0.157400
     14 C34          5.8910     0.3100    -0.3040 c3         1 E8B      -0.052700
     15 C40          5.4560    -0.0280    -1.7260 c3         1 E8B      -0.091100
     16 C36          6.9760     1.3810    -0.3090 c3         1 E8B      -0.091100
     17 N27          2.3920     0.0970     0.4390 ns         1 E8B      -0.147000
     18 C18          0.0160     0.1360     0.4380 ca         1 E8B      -0.160000
     19 C23         -0.1480    -2.5830     0.8170 ca         1 E8B      -0.088000
     20 C25         -1.3110    -1.8400     0.7090 ca         1 E8B      -0.124000
     21 C11         -2.5260     1.6320     0.9720 ca         1 E8B      -0.100000
     22 H1          -6.3040    -1.6480    -0.1720 hn         1 E8B       0.397000
     23 H2          -6.7870    -1.6550    -1.7160 hn         1 E8B       0.397000
     24 H4          -5.8320     0.3900    -2.1950 h1         1 E8B       0.034700
     25 H5          -6.8390     0.6140    -0.7840 h1         1 E8B       0.034700
     26 H6          -3.5460    -1.1150    -0.7250 ha         1 E8B       0.135000
     27 H7          -3.7340     3.3630     1.3270 ha         1 E8B       0.112000
     28 H8          -5.6990     2.4690     0.1390 ha         1 E8B       0.108000
     29 H9           1.9890    -2.5980     0.8270 ha         1 E8B       0.147000
     30 H10          4.2810     1.6840     0.1230 hc         1 E8B       0.058200
     31 H11          5.0620     1.0340     1.5520 hc         1 E8B       0.058200
     32 H12          6.3060    -0.5920     0.1550 hc         1 E8B       0.069700
     33 H13          5.0220     0.8440    -2.2210 hc         1 E8B       0.035367
     34 H14          6.3070    -0.3580    -2.3240 hc         1 E8B       0.035367
     35 H15          4.7160    -0.8300    -1.7520 hc         1 E8B       0.035367
     36 H16          7.3110     1.6160     0.7030 hc         1 E8B       0.035367
     37 H17          7.8470     1.0530    -0.8780 hc         1 E8B       0.035367
     38 H18          6.6140     2.3070    -0.7620 hc         1 E8B       0.035367
     39 H19          2.2850     1.0660     0.1810 hn         1 E8B       0.148000
     40 H20          0.0900     1.2050     0.2700 ha         1 E8B       0.108000
     41 H21         -0.2110    -3.6530     0.9700 ha         1 E8B       0.115000
     42 H22         -2.2720    -2.3300     0.7970 ha         1 E8B       0.120000
     43 H23         -1.6800     2.0260     1.5210 ha         1 E8B       0.113000
@<TRIPOS>BOND
     1     1     2 1   
     2     1    22 1   
     3     1    23 1   
     4     2     3 1   
     5     2    24 1   
     6     2    25 1   
     7     3     4 ar  
     8     3     7 ar  
     9     4     5 ar  
    10     4    26 1   
    11     5     8 1   
    12     5    21 ar  
    13     6     7 ar  
    14     6    21 ar  
    15     6    27 1   
    16     7    28 1   
    17     8    18 ar  
    18     8    20 ar  
    19     9    10 ar  
    20     9    17 1   
    21     9    18 ar  
    22    10    19 ar  
    23    10    29 1   
    24    11    12 2   
    25    12    13 1   
    26    12    17 1   
    27    13    14 1   
    28    13    30 1   
    29    13    31 1   
    30    14    15 1   
    31    14    16 1   
    32    14    32 1   
    33    15    33 1   
    34    15    34 1   
    35    15    35 1   
    36    16    36 1   
    37    16    37 1   
    38    16    38 1   
    39    17    39 1   
    40    18    40 1   
    41    19    20 ar  
    42    19    41 1   
    43    20    42 1   
    44    21    43 1   
@<TRIPOS>SUBSTRUCTURE
     1 E8B         1 TEMP              0 ****  ****    0 ROOT
