@<TRIPOS>MOLECULE
E8C
   41    41     1     0     0
SMALL
abcg2


@<TRIPOS>ATOM
      1 F1           2.7280    -1.1030     1.7300 f          1 E8C      -0.162000
      2 CG1          3.4930    -0.3790     0.9040 ca         1 E8C       0.220000
      3 CD1          4.7490    -0.8610     0.5920 ca         1 E8C      -0.206000
      4 C3           5.5270    -0.0980    -0.2600 ca         1 E8C       0.208000
      5 F2           6.7470    -0.5460    -0.5790 f          1 E8C      -0.170000
      6 C4           5.0890     1.0990    -0.7870 ca         1 E8C      -0.175000
      7 CG2          3.8190     1.5410    -0.4430 ca         1 E8C      -0.049000
      8 CB           2.9920     0.8180     0.4090 ca         1 E8C      -0.173300
      9 CA           1.6160     1.3010     0.7670 c3         1 E8C       0.171300
     10 N            0.6090     0.4730     0.1420 ns         1 E8C      -0.513900
     11 C8          -0.6660     0.4400     0.6050 c          1 E8C       0.651100
     12 O           -1.0160     1.0010     1.6370 o          1 E8C      -0.643100
     13 N2          -1.5360    -0.3050    -0.1360 ns         1 E8C      -0.491900
     14 C9          -2.9460    -0.2120     0.1240 c3         1 E8C       0.044700
     15 C10         -3.7150    -1.1560    -0.8030 c3         1 E8C      -0.086400
     16 C11         -3.3580    -2.6370    -0.6530 c3         1 E8C      -0.056700
     17 C12         -3.6280    -3.1510     0.7560 c3         1 E8C      -0.091100
     18 C13         -4.1390    -3.4510    -1.6800 c3         1 E8C      -0.091100
     19 C14         -3.4460     1.2160    -0.1030 c          1 E8C       0.586100
     20 O2          -2.9980     1.9380    -0.9740 o          1 E8C      -0.579100
     21 N3          -4.4330     1.5720     0.7360 ns         1 E8C      -0.379400
     22 O3          -5.1530     2.7050     0.5060 oh         1 E8C      -0.426100
     23 H1           5.1070    -1.7960     1.0000 ha         1 E8C       0.152000
     24 H2           5.7190     1.6740    -1.4520 ha         1 E8C       0.139000
     25 H3           3.4600     2.4780    -0.8490 ha         1 E8C       0.124000
     26 H4           1.4730     1.2760     1.8470 h1         1 E8C       0.064700
     27 H5           1.5210     2.3480     0.4620 h1         1 E8C       0.064700
     28 H6           0.8030     0.1420    -0.7900 hn         1 E8C       0.309500
     29 H7          -1.2660    -0.5770    -1.0690 hn         1 E8C       0.309500
     30 H8          -3.1390    -0.5000     1.1610 h1         1 E8C       0.083700
     31 H9          -4.7850    -1.0290    -0.6100 hc         1 E8C       0.055200
     32 H10         -3.5510    -0.8420    -1.8400 hc         1 E8C       0.055200
     33 H11         -2.2920    -2.7630    -0.8670 hc         1 E8C       0.051700
     34 H12         -4.6740    -3.0010     1.0340 hc         1 E8C       0.035700
     35 H13         -3.4180    -4.2200     0.8260 hc         1 E8C       0.035700
     36 H14         -3.0120    -2.6550     1.5070 hc         1 E8C       0.035700
     37 H15         -3.9150    -3.1320    -2.6990 hc         1 E8C       0.035700
     38 H16         -3.8990    -4.5130    -1.6050 hc         1 E8C       0.035700
     39 H17         -5.2160    -3.3450    -1.5270 hc         1 E8C       0.035700
     40 H18         -4.8560     0.9260     1.3860 hn         1 E8C       0.337500
     41 H19         -4.7680     3.3870     1.0710 ho         1 E8C       0.449000
@<TRIPOS>BOND
     1     1     2 1   
     2     2     3 ar  
     3     2     8 ar  
     4     3     4 ar  
     5     3    23 1   
     6     4     5 1   
     7     4     6 ar  
     8     6     7 ar  
     9     6    24 1   
    10     7     8 ar  
    11     7    25 1   
    12     8     9 1   
    13     9    10 1   
    14     9    26 1   
    15     9    27 1   
    16    10    11 1   
    17    10    28 1   
    18    11    12 2   
    19    11    13 1   
    20    13    14 1   
    21    13    29 1   
    22    14    15 1   
    23    14    19 1   
    24    14    30 1   
    25    15    16 1   
    26    15    31 1   
    27    15    32 1   
    28    16    17 1   
    29    16    18 1   
    30    16    33 1   
    31    17    34 1   
    32    17    35 1   
    33    17    36 1   
    34    18    37 1   
    35    18    38 1   
    36    18    39 1   
    37    19    20 2   
    38    19    21 1   
    39    21    22 1   
    40    21    40 1   
    41    22    41 1   
@<TRIPOS>SUBSTRUCTURE
     1 E8C         1 TEMP              0 ****  ****    0 ROOT
