@<TRIPOS>MOLECULE
E8C
   41    41     1     0     0
SMALL
No Charge or Current Charge


@<TRIPOS>ATOM
      1 F1           3.1190    -2.2440     0.1040 f          1 E8C      -0.162000
      2 CG1          3.6860    -1.0320    -0.0920 ca         1 E8C       0.220000
      3 CD1          4.8770    -0.9500    -0.8280 ca         1 E8C      -0.206000
      4 C3           5.4740     0.2990    -1.0430 ca         1 E8C       0.208000
      5 F2           6.6210     0.3810    -1.7520 f          1 E8C      -0.170000
      6 C4           4.8880     1.4640    -0.5280 ca         1 E8C      -0.175000
      7 CG2          3.6940     1.3830     0.2110 ca         1 E8C      -0.049000
      8 CB           3.0860     0.1310     0.4340 ca         1 E8C      -0.173300
      9 CA           1.7930     0.0510     1.2330 c3         1 E8C       0.171300
     10 N            0.6350     0.2400     0.3680 ns         1 E8C      -0.513900
     11 C8          -0.6580     0.1420     0.7950 c          1 E8C       0.651100
     12 O           -0.9650    -0.1030     1.9490 o          1 E8C      -0.643100
     13 N2          -1.5620     0.3550    -0.2090 ns         1 E8C      -0.491900
     14 C9          -3.0360     0.2870    -0.0610 c3         1 E8C       0.044700
     15 C10         -3.5840    -1.0530    -0.6320 c3         1 E8C      -0.086400
     16 C11         -3.1360    -2.3450     0.1090 c3         1 E8C      -0.056700
     17 C12         -3.6790    -2.4190     1.5570 c3         1 E8C      -0.091100
     18 C13         -3.5430    -3.6060    -0.6860 c3         1 E8C      -0.091100
     19 C14         -3.7040     1.5100    -0.7600 c          1 E8C       0.586100
     20 O2          -3.1150     2.2260    -1.5660 o          1 E8C      -0.579100
     21 N3          -5.0250     1.7510    -0.3890 ns         1 E8C      -0.379400
     22 O3          -5.8510     2.6820    -1.1320 oh         1 E8C      -0.426100
     23 H1           5.3330    -1.8490    -1.2300 ha         1 E8C       0.152000
     24 H2           5.3590     2.4280    -0.7010 ha         1 E8C       0.139000
     25 H3           3.2420     2.2910     0.6070 ha         1 E8C       0.124000
     26 H4           1.7130    -0.9220     1.7360 h1         1 E8C       0.064700
     27 H5           1.7880     0.8290     2.0090 h1         1 E8C       0.064700
     28 H6           0.7930     0.4470    -0.6080 hn         1 E8C       0.309500
     29 H7          -1.1900     0.5930    -1.1190 hn         1 E8C       0.309500
     30 H8          -3.2960     0.3650     1.0020 h1         1 E8C       0.083700
     31 H9          -4.6800    -1.0230    -0.6350 hc         1 E8C       0.055200
     32 H10         -3.2810    -1.1220    -1.6850 hc         1 E8C       0.055200
     33 H11         -2.0400    -2.3460     0.1650 hc         1 E8C       0.051700
     34 H12         -4.7750    -2.4010     1.5640 hc         1 E8C       0.035700
     35 H13         -3.3500    -3.3440     2.0450 hc         1 E8C       0.035700
     36 H14         -3.3190    -1.5810     2.1630 hc         1 E8C       0.035700
     37 H15         -3.1090    -3.5880    -1.6930 hc         1 E8C       0.035700
     38 H16         -3.1870    -4.5140    -0.1840 hc         1 E8C       0.035700
     39 H17         -4.6330    -3.6730    -0.7830 hc         1 E8C       0.035700
     40 H18         -5.5210     1.0620     0.1760 hn         1 E8C       0.337500
     41 H19         -6.2360     3.2610    -0.4320 ho         1 E8C       0.449000
@<TRIPOS>BOND
     1     1     2 1   
     2     2     3 ar  
     3     2     8 ar  
     4     3     4 ar  
     5     3    23 1   
     6     4     5 1   
     7     4     6 ar  
     8     6     7 ar  
     9     6    24 1   
    10     7     8 ar  
    11     7    25 1   
    12     8     9 1   
    13     9    10 1   
    14     9    26 1   
    15     9    27 1   
    16    10    11 1   
    17    10    28 1   
    18    11    12 2   
    19    11    13 1   
    20    13    14 1   
    21    13    29 1   
    22    14    15 1   
    23    14    19 1   
    24    14    30 1   
    25    15    16 1   
    26    15    31 1   
    27    15    32 1   
    28    16    17 1   
    29    16    18 1   
    30    16    33 1   
    31    17    34 1   
    32    17    35 1   
    33    17    36 1   
    34    18    37 1   
    35    18    38 1   
    36    18    39 1   
    37    19    20 2   
    38    19    21 1   
    39    21    22 1   
    40    21    40 1   
    41    22    41 1   
@<TRIPOS>SUBSTRUCTURE
     1 E8C         1 TEMP              0 ****  ****    0 ROOT
