@<TRIPOS>MOLECULE
E8D
   40    43     1     0     0
SMALL
No Charge or Current Charge


@<TRIPOS>ATOM
      1 C4           1.7050    -2.1900    -0.0220 ca         1 E8D      -0.227000
      2 C14          4.5590     1.6340     0.9040 ca         1 E8D      -0.116000
      3 C5           1.9720    -0.8120     0.1030 ca         1 E8D       0.400900
      4 C6           4.1150    -2.8320    -0.0480 c          1 E8D       0.563000
      5 C11         -5.4950     0.6080     0.1020 ca         1 E8D       0.032100
      6 C7           4.4420    -1.3360     0.2390 c6         1 E8D       0.141800
      7 C8           3.6510     1.0380     0.0070 ca         1 E8D       0.290000
      8 C9          -3.3590    -0.3780    -0.5650 ca         1 E8D      -0.181500
      9 C10         -4.7600    -0.3450    -0.6330 ca         1 E8D       0.161500
     10 C12         -4.7910     1.5320     0.9020 ca         1 E8D       0.161500
     11 C13         -3.3890     1.4980     0.9680 ca         1 E8D      -0.181500
     12 N2          -0.6370    -1.7030     0.0670 nb         1 E8D      -0.235000
     13 C3           0.3620    -2.5970    -0.0400 ca         1 E8D       0.130900
     14 N3           0.9690     0.0780     0.2210 nb         1 E8D      -0.280000
     15 C1          -2.6670     0.5360     0.2470 ca         1 E8D       0.341000
     16 C2          -0.2790    -0.4100     0.1830 ca         1 E8D       0.401900
     17 N4           2.7670    -3.1220    -0.1190 ns         1 E8D      -0.123000
     18 N5           3.3090    -0.3310     0.1410 nh         1 E8D      -0.802100
     19 O1           4.9810    -3.6890    -0.1940 o          1 E8D      -0.533000
     20 O2          -6.8700     0.6390     0.0340 oh         1 E8D      -0.508100
     21 F2          -5.4040    -1.2350    -1.4210 f          1 E8D      -0.170500
     22 C15          4.9190     2.9870     0.7680 ca         1 E8D      -0.096000
     23 C16          4.3790     3.7560    -0.2750 ca         1 E8D      -0.114000
     24 C17          3.4820     3.1700    -1.1830 ca         1 E8D      -0.096000
     25 C18          3.1230     1.8180    -1.0430 ca         1 E8D      -0.116000
     26 H1           4.9780     1.0500     1.7180 ha         1 E8D       0.120500
     27 H2           4.8690    -1.3210     1.2510 h1         1 E8D       0.080700
     28 H3           5.2410    -1.0730    -0.4690 h1         1 E8D       0.080700
     29 H4          -2.8230    -1.1060    -1.1620 ha         1 E8D       0.155000
     30 H5          -2.8690     2.2180     1.5920 ha         1 E8D       0.155000
     31 H6          -0.8910     1.4400     0.6430 hn         1 E8D       0.516000
     32 H7           0.0810    -3.6450    -0.1330 h4         1 E8D       0.029100
     33 H8           2.5190    -4.0900    -0.2820 hn         1 E8D       0.168000
     34 H9          -7.1740    -0.0730    -0.5710 ho         1 E8D       0.477000
     35 H10          5.6160     3.4380     1.4720 ha         1 E8D       0.117000
     36 H11          4.6570     4.8020    -0.3820 ha         1 E8D       0.117000
     37 H12          3.0670     3.7620    -1.9970 ha         1 E8D       0.117000
     38 H13          2.4410     1.3690    -1.7590 ha         1 E8D       0.120500
     39 N1          -1.2730     0.5470     0.3330 nu         1 E8D      -0.925900
     40 F1          -5.4600     2.4660     1.6180 f          1 E8D      -0.170500
@<TRIPOS>BOND
     1     1     3 ar  
     2     1    13 ar  
     3     1    17 1   
     4     2     7 ar  
     5     2    22 ar  
     6     2    26 1   
     7     3    14 ar  
     8     3    18 1   
     9     4     6 1   
    10     4    17 1   
    11     4    19 2   
    12     5     9 ar  
    13     5    10 ar  
    14     5    20 1   
    15     6    18 1   
    16     6    27 1   
    17     6    28 1   
    18     7    18 1   
    19     7    25 ar  
    20     8     9 ar  
    21     8    15 ar  
    22     8    29 1   
    23     9    21 1   
    24    10    11 ar  
    25    10    40 1   
    26    11    15 ar  
    27    11    30 1   
    28    12    13 ar  
    29    12    16 ar  
    30    13    32 1   
    31    14    16 ar  
    32    15    39 1   
    33    16    39 1   
    34    17    33 1   
    35    20    34 1   
    36    22    23 ar  
    37    22    35 1   
    38    23    24 ar  
    39    23    36 1   
    40    24    25 ar  
    41    24    37 1   
    42    25    38 1   
    43    31    39 1   
@<TRIPOS>SUBSTRUCTURE
     1 E8D         1 TEMP              0 ****  ****    0 ROOT
