@<TRIPOS>MOLECULE
E8D
   40    43     1     0     0
SMALL
bcc


@<TRIPOS>ATOM
      1 C4           1.7140    -2.1420    -0.2370 ca         1 E8D      -0.265000
      2 C14          4.4700     1.5190     0.9740 ca         1 E8D      -0.134000
      3 C5           1.9720    -0.7700    -0.0360 ca         1 E8D       0.729200
      4 C6           4.0580    -2.7040    -0.2090 c          1 E8D       0.705500
      5 C11         -5.4340     0.5720     0.1850 ca         1 E8D       0.032100
      6 C7           4.2820    -1.3300     0.3870 c6         1 E8D       0.141800
      7 C8           3.6170     1.0100     0.0020 ca         1 E8D       0.151600
      8 C9          -3.3320    -0.6550    -0.0520 ca         1 E8D      -0.199500
      9 C10         -4.7100    -0.5880    -0.0390 ca         1 E8D       0.126400
     10 C12         -4.6690     1.7110     0.4090 ca         1 E8D       0.126400
     11 C13         -3.2950     1.7040     0.4110 ca         1 E8D      -0.199500
     12 N2          -0.6070    -1.6420    -0.1280 nb         1 E8D      -0.761000
     13 C3           0.3950    -2.5130    -0.2660 ca         1 E8D       0.459200
     14 N3           0.9880     0.0920     0.1020 nb         1 E8D      -0.806000
     15 C1          -2.6000     0.5100     0.1770 ca         1 E8D       0.202600
     16 C2          -0.2610    -0.3780     0.0420 ca         1 E8D       0.927900
     17 N4           2.7720    -3.0180    -0.4590 ns         1 E8D      -0.449100
     18 N5           3.2700    -0.3600     0.0030 nh         1 E8D      -0.663700
     19 O1           4.9840    -3.4700    -0.3990 o          1 E8D      -0.608500
     20 O2          -6.7770     0.6590     0.2020 oh         1 E8D      -0.469100
     21 F2          -5.4120    -1.7140    -0.2610 f          1 E8D      -0.135400
     22 C15          4.8450     2.8570     0.9400 ca         1 E8D      -0.114000
     23 C16          4.3630     3.6950    -0.0540 ca         1 E8D      -0.132000
     24 C17          3.5100     3.1830    -1.0250 ca         1 E8D      -0.114000
     25 C18          3.1430     1.8480    -1.0060 ca         1 E8D      -0.134000
     26 H1           4.8470     0.8840     1.7660 ha         1 E8D       0.138500
     27 H2           4.3410    -1.4480     1.4760 h1         1 E8D       0.080700
     28 H3           5.2530    -0.9760     0.0450 h1         1 E8D       0.080700
     29 H4          -2.8440    -1.5990    -0.2360 ha         1 E8D       0.173000
     30 H5          -2.7630     2.6290     0.5980 ha         1 E8D       0.173000
     31 H6          -0.8330     1.5090     0.3270 hn         1 E8D       0.460800
     32 H7           0.1220    -3.5510    -0.4260 h4         1 E8D       0.029100
     33 H8           2.5690    -3.9430    -0.8140 hn         1 E8D       0.334500
     34 H9          -7.1750    -0.1870    -0.0330 ho         1 E8D       0.438000
     35 H10          5.5100     3.2410     1.7020 ha         1 E8D       0.135000
     36 H11          4.6540     4.7360    -0.0790 ha         1 E8D       0.135000
     37 H12          3.1350     3.8250    -1.8120 ha         1 E8D       0.135000
     38 H13          2.4960     1.4540    -1.7790 ha         1 E8D       0.138500
     39 N1          -1.2170     0.5880     0.1840 nu         1 E8D      -0.732300
     40 F1          -5.3190     2.8600     0.6350 f          1 E8D      -0.135400
@<TRIPOS>BOND
     1     1     3 ar  
     2     1    13 ar  
     3     1    17 1   
     4     2     7 ar  
     5     2    22 ar  
     6     2    26 1   
     7     3    14 ar  
     8     3    18 1   
     9     4     6 1   
    10     4    17 1   
    11     4    19 2   
    12     5     9 ar  
    13     5    10 ar  
    14     5    20 1   
    15     6    18 1   
    16     6    27 1   
    17     6    28 1   
    18     7    18 1   
    19     7    25 ar  
    20     8     9 ar  
    21     8    15 ar  
    22     8    29 1   
    23     9    21 1   
    24    10    11 ar  
    25    10    40 1   
    26    11    15 ar  
    27    11    30 1   
    28    12    13 ar  
    29    12    16 ar  
    30    13    32 1   
    31    14    16 ar  
    32    15    39 1   
    33    16    39 1   
    34    17    33 1   
    35    20    34 1   
    36    22    23 ar  
    37    22    35 1   
    38    23    24 ar  
    39    23    36 1   
    40    24    25 ar  
    41    24    37 1   
    42    25    38 1   
    43    31    39 1   
@<TRIPOS>SUBSTRUCTURE
     1 E8D         1 TEMP              0 ****  ****    0 ROOT
