@<TRIPOS>MOLECULE
E8E
   77    79     1     0     0
SMALL
bcc


@<TRIPOS>ATOM
      1 C10         -9.0080     1.3130    -1.7400 ca         1 E8E      -0.133500
      2 C20         -1.1100    -0.2260     1.3650 c3         1 E8E       0.032700
      3 O01         -3.4390     1.3780     1.4940 o          1 E8E      -0.617100
      4 C02         -3.3900     0.4350     0.7130 c          1 E8E       0.676300
      5 C03         -4.5030     0.0870    -0.2000 ce         1 E8E      -0.247200
      6 C05         -5.6270     0.8090    -0.2170 cf         1 E8E      -0.027200
      7 C07         -6.7960     0.5890    -1.0640 ca         1 E8E      -0.075800
      8 C08         -7.8740     1.4720    -0.9570 ca         1 E8E      -0.104500
      9 C12         -9.0840     0.2650    -2.6460 ca         1 E8E      -0.114000
     10 C14         -8.0180    -0.6240    -2.7610 ca         1 E8E      -0.133500
     11 C16         -6.8880    -0.4640    -1.9800 ca         1 E8E      -0.104500
     12 C74          4.6440    -4.0680    -0.9080 ca         1 E8E      -0.112000
     13 C82          4.4280    -4.7100    -2.1220 ca         1 E8E      -0.129500
     14 C80          3.3020    -4.4100    -2.8750 ca         1 E8E      -0.123000
     15 C78          2.3930    -3.4690    -2.4070 ca         1 E8E      -0.129500
     16 C76          2.6080    -2.8330    -1.1940 ca         1 E8E      -0.112000
     17 C73          3.7370    -3.1280    -0.4320 ca         1 E8E      -0.117300
     18 C70          3.9670    -2.4620     0.8990 c3         1 E8E       0.148300
     19 N68          3.8270    -1.0240     0.8000 ns         1 E8E      -0.550900
     20 O67          3.0520    -0.6670     2.9000 o          1 E8E      -0.628100
     21 C57          3.2880     1.2360     1.4770 c3         1 E8E       0.053100
     22 O58          3.0530     1.9580     2.6520 oh         1 E8E      -0.599800
     23 C40          2.1640     1.4700     0.4550 c3         1 E8E       0.101700
     24 C42          2.0640     2.9230    -0.0140 c3         1 E8E      -0.066400
     25 C45          3.3470     3.5530    -0.5450 c5         1 E8E      -0.150700
     26 C54          3.1270     4.9480    -1.1370 c5         1 E8E      -0.092400
     27 C51          4.2190     5.0830    -2.1980 c5         1 E8E       0.098000
     28 N49          4.4560     3.7050    -2.5710 ns         1 E8E      -0.573900
     29 C47          4.0400     2.8000    -1.6730 c          1 E8E       0.705500
     30 O48          4.2220     1.5910    -1.7450 o          1 E8E      -0.653500
     31 N38          0.9140     1.0420     1.0440 ns         1 E8E      -0.569900
     32 C36          0.0300     0.2240     0.4550 c          1 E8E       0.655100
     33 O37          0.1340    -0.1950    -0.6880 o          1 E8E      -0.612100
     34 C22         -0.6980    -1.5430     2.0360 c3         1 E8E      -0.089400
     35 C25         -1.6980    -2.0800     3.0600 c3         1 E8E      -0.055700
     36 C34         -1.2120    -3.4320     3.5740 c3         1 E8E      -0.092100
     37 C26         -1.9130    -1.1100     4.2180 c3         1 E8E      -0.092100
     38 N18         -2.3230    -0.3820     0.6090 ns         1 E8E      -0.555900
     39 H1          -9.8320     2.0070    -1.6410 ha         1 E8E       0.132500
     40 H2          -1.2900     0.5360     2.1240 h1         1 E8E       0.092700
     41 H3          -4.3700    -0.7680    -0.8540 ha         1 E8E       0.129000
     42 H4          -5.6960     1.6550     0.4610 ha         1 E8E       0.146000
     43 H5          -7.8220     2.2920    -0.2510 ha         1 E8E       0.132000
     44 H6          -9.9660     0.1360    -3.2580 ha         1 E8E       0.132000
     45 H7          -8.0720    -1.4440    -3.4650 ha         1 E8E       0.132500
     46 H8          -6.0730    -1.1680    -2.0870 ha         1 E8E       0.132000
     47 H10          5.1450    -5.4360    -2.4820 ha         1 E8E       0.133000
     48 H11          3.1330    -4.9040    -3.8240 ha         1 E8E       0.130000
     49 H12          1.5120    -3.2290    -2.9900 ha         1 E8E       0.133000
     50 H13          1.8930    -2.0980    -0.8420 ha         1 E8E       0.139000
     51 H14          3.2400    -2.8220     1.6290 h1         1 E8E       0.059200
     52 H15          4.9560    -2.7280     1.2800 h1         1 E8E       0.059200
     53 H16          4.1910    -0.5740    -0.0280 hn         1 E8E       0.341500
     54 H17          4.2380     1.5510     1.0320 h1         1 E8E       0.079700
     55 H18          2.8850     1.3100     3.3530 ho         1 E8E       0.436000
     56 H19          2.3450     0.8380    -0.4100 h1         1 E8E       0.103700
     57 H20          1.2990     2.9640    -0.7940 hc         1 E8E       0.058700
     58 H21          1.6990     3.5460     0.8070 hc         1 E8E       0.058700
     59 H22          4.0850     3.6270     0.2640 hc         1 E8E       0.079700
     60 H23          2.1440     4.9950    -1.6110 hc         1 E8E       0.061200
     61 H24          3.1750     5.7380    -0.3900 hc         1 E8E       0.061200
     62 H25          3.9000     5.6730    -3.0570 h1         1 E8E       0.046700
     63 H26          5.1260     5.5410    -1.7930 h1         1 E8E       0.046700
     64 H27          5.0440     3.4480    -3.3490 hn         1 E8E       0.328500
     65 H28          0.6970     1.3980     1.9630 hn         1 E8E       0.325500
     66 H29         -0.5370    -2.2950     1.2570 hc         1 E8E       0.057700
     67 H30          0.2710    -1.3930     2.5250 hc         1 E8E       0.057700
     68 H31         -2.6590    -2.2360     2.5570 hc         1 E8E       0.048700
     69 H32         -0.2420    -3.3360     4.0690 hc         1 E8E       0.035533
     70 H33         -1.9110    -3.8540     4.2970 hc         1 E8E       0.035533
     71 H34         -1.0980    -4.1520     2.7620 hc         1 E8E       0.035533
     72 H35         -2.3860    -0.1800     3.9010 hc         1 E8E       0.035533
     73 H36         -2.5560    -1.5520     4.9800 hc         1 E8E       0.035533
     74 H37         -0.9620    -0.8560     4.6950 hc         1 E8E       0.035533
     75 H38         -2.3390    -1.1110    -0.0870 hn         1 E8E       0.325500
     76 C66          3.3870    -0.2530     1.7970 c          1 E8E       0.634100
     77 H9           5.5300    -4.3010    -0.3290 ha         1 E8E       0.139000
@<TRIPOS>BOND
     1     1     8 ar  
     2     1     9 ar  
     3     1    39 1   
     4     2    32 1   
     5     2    34 1   
     6     2    38 1   
     7     2    40 1   
     8     3     4 2   
     9     4     5 1   
    10     4    38 1   
    11     5     6 2   
    12     5    41 1   
    13     6     7 1   
    14     6    42 1   
    15     7     8 ar  
    16     7    11 ar  
    17     8    43 1   
    18     9    10 ar  
    19     9    44 1   
    20    10    11 ar  
    21    10    45 1   
    22    11    46 1   
    23    12    13 ar  
    24    12    17 ar  
    25    12    77 1   
    26    13    14 ar  
    27    13    47 1   
    28    14    15 ar  
    29    14    48 1   
    30    15    16 ar  
    31    15    49 1   
    32    16    17 ar  
    33    16    50 1   
    34    17    18 1   
    35    18    19 1   
    36    18    51 1   
    37    18    52 1   
    38    19    53 1   
    39    19    76 1   
    40    20    76 2   
    41    21    22 1   
    42    21    23 1   
    43    21    54 1   
    44    21    76 1   
    45    22    55 1   
    46    23    24 1   
    47    23    31 1   
    48    23    56 1   
    49    24    25 1   
    50    24    57 1   
    51    24    58 1   
    52    25    26 1   
    53    25    29 1   
    54    25    59 1   
    55    26    27 1   
    56    26    60 1   
    57    26    61 1   
    58    27    28 1   
    59    27    62 1   
    60    27    63 1   
    61    28    29 1   
    62    28    64 1   
    63    29    30 2   
    64    31    32 1   
    65    31    65 1   
    66    32    33 2   
    67    34    35 1   
    68    34    66 1   
    69    34    67 1   
    70    35    36 1   
    71    35    37 1   
    72    35    68 1   
    73    36    69 1   
    74    36    70 1   
    75    36    71 1   
    76    37    72 1   
    77    37    73 1   
    78    37    74 1   
    79    38    75 1   
@<TRIPOS>SUBSTRUCTURE
     1 E8E         1 TEMP              0 ****  ****    0 ROOT
