@<TRIPOS>MOLECULE
E8E
   77    79     1     0     0
SMALL
No Charge or Current Charge


@<TRIPOS>ATOM
      1 C10         -8.2710    -1.4250    -2.9940 ca         1 E8E      -0.115500
      2 C20         -0.6800     0.3820     1.1040 c3         1 E8E       0.032700
      3 O01         -3.5020     1.0270     0.8410 o          1 E8E      -0.617100
      4 C02         -3.0170     0.1600     0.1310 c          1 E8E       0.609300
      5 C03         -3.8060    -0.5910    -0.8800 ce         1 E8E      -0.297200
      6 C05         -5.1460    -0.4310    -1.0920 cf         1 E8E      -0.077200
      7 C07         -6.0310    -1.1150    -2.0570 ca         1 E8E      -0.075800
      8 C08         -7.4040    -0.7920    -2.0860 ca         1 E8E      -0.086500
      9 C12         -7.7740    -2.3900    -3.8850 ca         1 E8E      -0.096000
     10 C14         -6.4090    -2.7200    -3.8650 ca         1 E8E      -0.115500
     11 C16         -5.5410    -2.0880    -2.9570 ca         1 E8E      -0.086500
     12 C74          0.6290    -2.5590    -1.8260 ca         1 E8E      -0.094000
     13 C82         -0.7450    -2.8320    -1.9390 ca         1 E8E      -0.111500
     14 C80         -1.4210    -3.4890    -0.8970 ca         1 E8E      -0.105000
     15 C78         -0.7190    -3.8740     0.2580 ca         1 E8E      -0.111500
     16 C76          0.6580    -3.6080     0.3680 ca         1 E8E      -0.094000
     17 C73          1.3380    -2.9430    -0.6710 ca         1 E8E      -0.117300
     18 C70          2.8250    -2.6430    -0.5460 c3         1 E8E       0.148300
     19 N68          3.0510    -1.2550    -0.1460 ns         1 E8E      -0.483900
     20 O67          4.7950    -1.6410     1.2530 o          1 E8E      -0.628100
     21 C57          4.1070     0.6890     1.0990 c3         1 E8E       0.076300
     22 O58          4.1720     0.8870     2.5390 oh         1 E8E      -0.662000
     23 C40          2.9820     1.5890     0.4900 c3         1 E8E       0.101700
     24 C42          3.2080     3.1160     0.6780 c3         1 E8E      -0.066400
     25 C45          4.5410     3.7100     0.1320 c5         1 E8E      -0.150700
     26 C54          4.6770     5.2440     0.3450 c5         1 E8E      -0.092400
     27 C51          5.8050     5.5930    -0.6640 c5         1 E8E       0.098000
     28 N49          5.4780     4.6800    -1.7560 ns         1 E8E      -0.506900
     29 C47          4.7730     3.5700    -1.3820 c          1 E8E       0.563000
     30 O48          4.2690     2.8040    -2.1860 o          1 E8E      -0.578000
     31 N38          1.6610     1.2350     1.0350 ns         1 E8E      -0.502900
     32 C36          0.6190     0.7050     0.3060 c          1 E8E       0.588100
     33 O37          0.7460     0.4820    -0.8910 o          1 E8E      -0.612100
     34 C22         -0.4040    -0.5550     2.3190 c3         1 E8E      -0.089400
     35 C25         -1.6140    -0.8400     3.2520 c3         1 E8E      -0.055700
     36 C34         -1.2960    -1.9900     4.2350 c3         1 E8E      -0.092100
     37 C26         -2.0750     0.4220     4.0210 c3         1 E8E      -0.092100
     38 N18         -1.6930    -0.2010     0.1920 ns         1 E8E      -0.488900
     39 H1          -9.3270    -1.1670    -3.0060 ha         1 E8E       0.114500
     40 H2          -1.0440     1.3480     1.4760 h1         1 E8E       0.092700
     41 H3          -3.2510    -1.3080    -1.4760 ha         1 E8E       0.179000
     42 H4          -5.6600     0.3030    -0.4650 ha         1 E8E       0.196000
     43 H5          -7.8050    -0.0470    -1.4020 ha         1 E8E       0.114000
     44 H6          -8.4440    -2.8790    -4.5880 ha         1 E8E       0.114000
     45 H7          -6.0220    -3.4670    -4.5550 ha         1 E8E       0.114500
     46 H8          -4.4910    -2.3630    -2.9630 ha         1 E8E       0.114000
     47 H10         -1.2830    -2.5380    -2.8380 ha         1 E8E       0.115000
     48 H11         -2.4840    -3.7040    -0.9840 ha         1 E8E       0.112000
     49 H12         -1.2380    -4.3830     1.0660 ha         1 E8E       0.115000
     50 H13          1.1930    -3.9130     1.2660 ha         1 E8E       0.121000
     51 H14          3.2750    -3.3240     0.1890 h1         1 E8E       0.059200
     52 H15          3.3190    -2.8180    -1.5110 h1         1 E8E       0.059200
     53 H16          2.4120    -0.5520    -0.5070 hn         1 E8E       0.341500
     54 H17          5.0530     1.0080     0.6420 h1         1 E8E       0.079700
     55 H18          4.7760     0.1950     2.8950 ho         1 E8E       0.475000
     56 H19          2.9750     1.4050    -0.5920 h1         1 E8E       0.103700
     57 H20          2.3680     3.6380     0.2020 hc         1 E8E       0.058700
     58 H21          3.1310     3.3470     1.7470 hc         1 E8E       0.058700
     59 H22          5.3920     3.2440     0.6410 hc         1 E8E       0.079700
     60 H23          3.7490     5.7670     0.0820 hc         1 E8E       0.061200
     61 H24          4.9300     5.5180     1.3750 hc         1 E8E       0.061200
     62 H25          5.7760     6.6490    -0.9660 h1         1 E8E       0.046700
     63 H26          6.7990     5.3780    -0.2470 h1         1 E8E       0.046700
     64 H27          5.6620     4.8350    -2.7410 hn         1 E8E       0.328500
     65 H28          1.5060     1.3760     2.0260 hn         1 E8E       0.325500
     66 H29         -0.0240    -1.5060     1.9320 hc         1 E8E       0.057700
     67 H30          0.4030    -0.1370     2.9330 hc         1 E8E       0.057700
     68 H31         -2.4550    -1.1800     2.6340 hc         1 E8E       0.048700
     69 H32         -0.4560    -1.7250     4.8900 hc         1 E8E       0.035533
     70 H33         -2.1650    -2.2140     4.8660 hc         1 E8E       0.035533
     71 H34         -1.0330    -2.9050     3.6900 hc         1 E8E       0.035533
     72 H35         -2.3800     1.2190     3.3350 hc         1 E8E       0.035533
     73 H36         -2.9350     0.1900     4.6620 hc         1 E8E       0.035533
     74 H37         -1.2700     0.8070     4.6570 hc         1 E8E       0.035533
     75 H38         -1.3840    -0.9110    -0.4620 hn         1 E8E       0.325500
     76 C66          4.0230    -0.8380     0.7430 c          1 E8E       0.567100
     77 H9           1.1430    -2.0440    -2.6360 ha         1 E8E       0.121000
@<TRIPOS>BOND
     1     1     8 ar  
     2     1     9 ar  
     3     1    39 1   
     4     2    32 1   
     5     2    34 1   
     6     2    38 1   
     7     2    40 1   
     8     3     4 2   
     9     4     5 1   
    10     4    38 1   
    11     5     6 2   
    12     5    41 1   
    13     6     7 1   
    14     6    42 1   
    15     7     8 ar  
    16     7    11 ar  
    17     8    43 1   
    18     9    10 ar  
    19     9    44 1   
    20    10    11 ar  
    21    10    45 1   
    22    11    46 1   
    23    12    13 ar  
    24    12    17 ar  
    25    12    77 1   
    26    13    14 ar  
    27    13    47 1   
    28    14    15 ar  
    29    14    48 1   
    30    15    16 ar  
    31    15    49 1   
    32    16    17 ar  
    33    16    50 1   
    34    17    18 1   
    35    18    19 1   
    36    18    51 1   
    37    18    52 1   
    38    19    53 1   
    39    19    76 1   
    40    20    76 2   
    41    21    22 1   
    42    21    23 1   
    43    21    54 1   
    44    21    76 1   
    45    22    55 1   
    46    23    24 1   
    47    23    31 1   
    48    23    56 1   
    49    24    25 1   
    50    24    57 1   
    51    24    58 1   
    52    25    26 1   
    53    25    29 1   
    54    25    59 1   
    55    26    27 1   
    56    26    60 1   
    57    26    61 1   
    58    27    28 1   
    59    27    62 1   
    60    27    63 1   
    61    28    29 1   
    62    28    64 1   
    63    29    30 2   
    64    31    32 1   
    65    31    65 1   
    66    32    33 2   
    67    34    35 1   
    68    34    66 1   
    69    34    67 1   
    70    35    36 1   
    71    35    37 1   
    72    35    68 1   
    73    36    69 1   
    74    36    70 1   
    75    36    71 1   
    76    37    72 1   
    77    37    73 1   
    78    37    74 1   
    79    38    75 1   
@<TRIPOS>SUBSTRUCTURE
     1 E8E         1 TEMP              0 ****  ****    0 ROOT
