@<TRIPOS>MOLECULE
E8F
   47    47     1     0     0
SMALL
bcc


@<TRIPOS>ATOM
      1 C1           6.8350     1.0040    -0.6190 c3         1 E8F      -0.047800
      2 C2           5.4890     0.4860    -0.2070 ca         1 E8F      -0.067300
      3 CD1          4.6150     1.2840     0.5280 ca         1 E8F      -0.131000
      4 CG1          3.3670     0.8220     0.9180 ca         1 E8F      -0.110000
      5 CB           2.9610    -0.4640     0.5770 ca         1 E8F      -0.116300
      6 CA           1.6050    -0.9750     0.9830 c3         1 E8F       0.162300
      7 N            0.5660    -0.2270     0.3060 ns         1 E8F      -0.579900
      8 C7          -0.7270    -0.2880     0.7070 c          1 E8F       0.781100
      9 O           -1.0810    -0.8540     1.7360 o          1 E8F      -0.647100
     10 N2          -1.6180     0.3700    -0.0900 ns         1 E8F      -0.563900
     11 C8          -3.0280     0.2060     0.1320 c3         1 E8F       0.046700
     12 C9          -3.8170     1.0660    -0.8580 c3         1 E8F      -0.086400
     13 C10         -3.5530     2.5710    -0.7580 c3         1 E8F      -0.057700
     14 C11         -4.3260     3.2960    -1.8550 c3         1 E8F      -0.091100
     15 C12         -3.9190     3.1260     0.6140 c3         1 E8F      -0.091100
     16 C13         -3.4410    -1.2550    -0.0440 c          1 E8F       0.655100
     17 O2          -2.9480    -1.9810    -0.8860 o          1 E8F      -0.577100
     18 N3          -4.4140    -1.6350     0.8010 ns         1 E8F      -0.447400
     19 O3          -5.0690    -2.8140     0.6100 oh         1 E8F      -0.387100
     20 CG2          3.8310    -1.2600    -0.1580 ca         1 E8F      -0.113000
     21 C15          5.0880    -0.8110    -0.5530 ca         1 E8F      -0.078300
     22 C16          5.9970    -1.7030    -1.3470 c3         1 E8F      -0.046800
     23 H1           7.6430     0.4200    -0.1740 hc         1 E8F       0.042700
     24 H2           6.9710     0.9520    -1.7010 hc         1 E8F       0.042700
     25 H3           6.9710     2.0420    -0.3160 hc         1 E8F       0.042700
     26 H4           4.9180     2.2870     0.8030 ha         1 E8F       0.130000
     27 H5           2.7100     1.4640     1.4930 ha         1 E8F       0.138000
     28 H6           1.5340    -2.0460     0.7660 h1         1 E8F       0.058700
     29 H7           1.4740    -0.8600     2.0600 h1         1 E8F       0.058700
     30 H8           0.7780     0.1050    -0.6210 hn         1 E8F       0.310500
     31 H9          -1.3310     0.6370    -1.0190 hn         1 E8F       0.310500
     32 H10         -3.2690     0.5280     1.1500 h1         1 E8F       0.080700
     33 H11         -3.5970     0.7230    -1.8740 hc         1 E8F       0.055700
     34 H12         -4.8850     0.8830    -0.6970 hc         1 E8F       0.055700
     35 H13         -2.4860     2.7500    -0.9240 hc         1 E8F       0.051700
     36 H14         -5.4020     3.1450    -1.7430 hc         1 E8F       0.035867
     37 H15         -4.1380     4.3700    -1.8220 hc         1 E8F       0.035867
     38 H16         -4.0420     2.9390    -2.8470 hc         1 E8F       0.035867
     39 H17         -3.3200     2.6870     1.4130 hc         1 E8F       0.035867
     40 H18         -3.7620     4.2050     0.6500 hc         1 E8F       0.035867
     41 H19         -4.9710     2.9370     0.8450 hc         1 E8F       0.035867
     42 H20         -4.8710    -0.9920     1.4310 hn         1 E8F       0.337500
     43 H21         -4.6510    -3.4520     1.2020 ho         1 E8F       0.409000
     44 H22          3.5220    -2.2630    -0.4340 ha         1 E8F       0.130000
     45 H23          6.9310    -1.9010    -0.8170 hc         1 E8F       0.042033
     46 H24          5.5260    -2.6620    -1.5590 hc         1 E8F       0.042033
     47 H25          6.2700    -1.2490    -2.3030 hc         1 E8F       0.042033
@<TRIPOS>BOND
     1     1     2 1   
     2     1    23 1   
     3     1    24 1   
     4     1    25 1   
     5     2     3 ar  
     6     2    21 ar  
     7     3     4 ar  
     8     3    26 1   
     9     4     5 ar  
    10     4    27 1   
    11     5     6 1   
    12     5    20 ar  
    13     6     7 1   
    14     6    28 1   
    15     6    29 1   
    16     7     8 1   
    17     7    30 1   
    18     8     9 2   
    19     8    10 1   
    20    10    11 1   
    21    10    31 1   
    22    11    12 1   
    23    11    16 1   
    24    11    32 1   
    25    12    13 1   
    26    12    33 1   
    27    12    34 1   
    28    13    14 1   
    29    13    15 1   
    30    13    35 1   
    31    14    36 1   
    32    14    37 1   
    33    14    38 1   
    34    15    39 1   
    35    15    40 1   
    36    15    41 1   
    37    16    17 2   
    38    16    18 1   
    39    18    19 1   
    40    18    42 1   
    41    19    43 1   
    42    20    21 ar  
    43    20    44 1   
    44    21    22 1   
    45    22    45 1   
    46    22    46 1   
    47    22    47 1   
@<TRIPOS>SUBSTRUCTURE
     1 E8F         1 TEMP              0 ****  ****    0 ROOT
