@<TRIPOS>MOLECULE
E8F
   47    47     1     0     0
SMALL
No Charge or Current Charge


@<TRIPOS>ATOM
      1 C1           6.8140     0.4820    -1.6370 c3         1 E8F      -0.047800
      2 C2           5.4970     0.4330    -0.8670 ca         1 E8F      -0.067300
      3 CD1          4.7490     1.6150    -0.7020 ca         1 E8F      -0.113000
      4 CG1          3.5340     1.6010     0.0020 ca         1 E8F      -0.092000
      5 CB           3.0500     0.4010     0.5510 ca         1 E8F      -0.116300
      6 CA           1.7320     0.3820     1.3100 c3         1 E8F       0.162300
      7 N            0.6150     0.1130     0.4110 ns         1 E8F      -0.512900
      8 C7          -0.6900     0.0690     0.8080 c          1 E8F       0.647100
      9 O           -1.0460     0.2440     1.9600 o          1 E8F      -0.647100
     10 N2          -1.5460    -0.1980    -0.2260 ns         1 E8F      -0.496900
     11 C8          -3.0210    -0.2830    -0.1140 c3         1 E8F       0.046700
     12 C9          -3.6890     1.0140    -0.6580 c3         1 E8F      -0.086400
     13 C10         -3.3920     2.3190     0.1350 c3         1 E8F      -0.057700
     14 C11         -3.9050     3.5590    -0.6320 c3         1 E8F      -0.091100
     15 C12         -3.9740     2.2900     1.5680 c3         1 E8F      -0.091100
     16 C13         -3.5480    -1.5420    -0.8670 c          1 E8F       0.588100
     17 O2          -2.8730    -2.1680    -1.6810 o          1 E8F      -0.577100
     18 N3          -4.8450    -1.9270    -0.5350 ns         1 E8F      -0.380400
     19 O3          -5.5580    -2.9110    -1.3260 oh         1 E8F      -0.426100
     20 CG2          3.7920    -0.7830     0.3870 ca         1 E8F      -0.095000
     21 C15          5.0130    -0.7790    -0.3180 ca         1 E8F      -0.078300
     22 C16          5.7890    -2.0840    -0.4750 c3         1 E8F      -0.046800
     23 H1           7.6520     0.1630    -1.0070 hc         1 E8F       0.042700
     24 H2           6.7820    -0.1730    -2.5160 hc         1 E8F       0.042700
     25 H3           7.0400     1.4940    -1.9930 hc         1 E8F       0.042700
     26 H4           5.1090     2.5520    -1.1200 ha         1 E8F       0.112000
     27 H5           2.9690     2.5230     0.1180 ha         1 E8F       0.120000
     28 H6           1.7600    -0.3930     2.0880 h1         1 E8F       0.058700
     29 H7           1.5700     1.3510     1.8010 h1         1 E8F       0.058700
     30 H8           0.8150    -0.0450    -0.5670 hn         1 E8F       0.310500
     31 H9          -1.1310    -0.3680    -1.1330 hn         1 E8F       0.310500
     32 H10         -3.2970    -0.4200     0.9390 h1         1 E8F       0.080700
     33 H11         -3.3700     1.1480    -1.7000 hc         1 E8F       0.055700
     34 H12         -4.7760     0.8740    -0.6920 hc         1 E8F       0.055700
     35 H13         -2.3030     2.4280     0.2200 hc         1 E8F       0.051700
     36 H14         -4.9940     3.5190    -0.7570 hc         1 E8F       0.035867
     37 H15         -3.6550     4.4800    -0.0930 hc         1 E8F       0.035867
     38 H16         -3.4480     3.6170    -1.6270 hc         1 E8F       0.035867
     39 H17         -3.5450     1.4730     2.1590 hc         1 E8F       0.035867
     40 H18         -3.7520     3.2270     2.0930 hc         1 E8F       0.035867
     41 H19         -5.0630     2.1610     1.5450 hc         1 E8F       0.035867
     42 H20         -5.4190    -1.3110     0.0400 hn         1 E8F       0.337500
     43 H21         -5.8960    -3.5490    -0.6540 ho         1 E8F       0.448000
     44 H22          3.4140    -1.7120     0.8090 ha         1 E8F       0.112000
     45 H23          6.7850    -2.0070    -0.0240 hc         1 E8F       0.042033
     46 H24          5.2760    -2.9240     0.0080 hc         1 E8F       0.042033
     47 H25          5.9150    -2.3430    -1.5330 hc         1 E8F       0.042033
@<TRIPOS>BOND
     1     1     2 1   
     2     1    23 1   
     3     1    24 1   
     4     1    25 1   
     5     2     3 ar  
     6     2    21 ar  
     7     3     4 ar  
     8     3    26 1   
     9     4     5 ar  
    10     4    27 1   
    11     5     6 1   
    12     5    20 ar  
    13     6     7 1   
    14     6    28 1   
    15     6    29 1   
    16     7     8 1   
    17     7    30 1   
    18     8     9 2   
    19     8    10 1   
    20    10    11 1   
    21    10    31 1   
    22    11    12 1   
    23    11    16 1   
    24    11    32 1   
    25    12    13 1   
    26    12    33 1   
    27    12    34 1   
    28    13    14 1   
    29    13    15 1   
    30    13    35 1   
    31    14    36 1   
    32    14    37 1   
    33    14    38 1   
    34    15    39 1   
    35    15    40 1   
    36    15    41 1   
    37    16    17 2   
    38    16    18 1   
    39    18    19 1   
    40    18    42 1   
    41    19    43 1   
    42    20    21 ar  
    43    20    44 1   
    44    21    22 1   
    45    22    45 1   
    46    22    46 1   
    47    22    47 1   
@<TRIPOS>SUBSTRUCTURE
     1 E8F         1 TEMP              0 ****  ****    0 ROOT
