@<TRIPOS>MOLECULE
E8G
   47    47     1     0     0
SMALL
No Charge or Current Charge


@<TRIPOS>ATOM
      1 CD1         -3.4280     1.9110     0.8350 c3         1 E8G      -0.053800
      2 CG1         -4.1190     0.6270     0.3550 ca         1 E8G      -0.052300
      3 C3          -5.3350     0.1940     0.9530 ca         1 E8G      -0.082300
      4 C4          -6.0110     0.9840     2.0720 c3         1 E8G      -0.047800
      5 C5          -5.9500    -0.9920     0.5070 ca         1 E8G      -0.098000
      6 C6          -5.3810    -1.7460    -0.5260 ca         1 E8G      -0.114000
      7 CG2         -4.1930    -1.3180    -1.1310 ca         1 E8G      -0.098000
      8 CB          -3.5580    -0.1350    -0.7060 ca         1 E8G      -0.114300
      9 CA          -2.2740     0.2840    -1.4190 c3         1 E8G       0.163300
     10 N           -1.0930    -0.1980    -0.7090 ns         1 E8G      -0.516900
     11 C10          0.1850     0.1460    -1.0350 c          1 E8G       0.645100
     12 O            0.4690     0.8820    -1.9640 o          1 E8G      -0.649100
     13 N2           1.1130    -0.4290    -0.2120 ns         1 E8G      -0.517900
     14 C11          2.5750    -0.2170    -0.3050 c3         1 E8G       0.051700
     15 C12          2.9410     1.1370     0.3730 c3         1 E8G      -0.097400
     16 C13          4.4190     1.6020     0.2490 c3         1 E8G      -0.057700
     17 C14          4.8570     1.8210    -1.2200 c3         1 E8G      -0.088100
     18 C15          4.6610     2.8820     1.0820 c3         1 E8G      -0.088100
     19 C16          3.3210    -1.4310     0.3330 c          1 E8G       0.595100
     20 O2           2.8280    -2.1160     1.2240 o          1 E8G      -0.579100
     21 N3           4.5840    -1.7040    -0.1900 ns         1 E8G      -0.381400
     22 O3           5.2650    -2.9470     0.1150 oh         1 E8G      -0.422100
     23 H1          -3.6660     2.1590     1.8740 hc         1 E8G       0.046033
     24 H2          -2.3360     1.8300     0.7960 hc         1 E8G       0.046033
     25 H3          -3.7220     2.7660     0.2140 hc         1 E8G       0.046033
     26 H4          -6.1370     2.0380     1.7950 hc         1 E8G       0.042367
     27 H5          -7.0080     0.5920     2.3040 hc         1 E8G       0.042367
     28 H6          -5.4210     0.9420     2.9960 hc         1 E8G       0.042367
     29 H7          -6.8770    -1.3320     0.9630 ha         1 E8G       0.112000
     30 H8          -5.8640    -2.6610    -0.8620 ha         1 E8G       0.116000
     31 H9          -3.7630    -1.9090    -1.9370 ha         1 E8G       0.114000
     32 H10         -2.2620    -0.1290    -2.4360 h1         1 E8G       0.056200
     33 H11         -2.2260     1.3770    -1.5110 h1         1 E8G       0.056200
     34 H12         -1.2290    -0.8150     0.0790 hn         1 E8G       0.314500
     35 H13          0.7690    -1.0400     0.5200 hn         1 E8G       0.324500
     36 H14          2.8450    -0.1830    -1.3680 h1         1 E8G       0.085700
     37 H15          2.3000     1.9240    -0.0450 hc         1 E8G       0.060200
     38 H16          2.6800     1.0670     1.4360 hc         1 E8G       0.060200
     39 H17          5.0640     0.8260     0.6790 hc         1 E8G       0.045700
     40 H18          4.2200     2.5680    -1.7090 hc         1 E8G       0.034367
     41 H19          5.8940     2.1750    -1.2650 hc         1 E8G       0.034367
     42 H20          4.8010     0.8920    -1.7980 hc         1 E8G       0.034367
     43 H21          4.4050     2.7150     2.1350 hc         1 E8G       0.034367
     44 H22          5.7150     3.1820     1.0350 hc         1 E8G       0.034367
     45 H23          4.0510     3.7140     0.7080 hc         1 E8G       0.034367
     46 H24          4.8960    -1.2160    -1.0280 hn         1 E8G       0.341500
     47 H25          6.1640    -2.6570     0.3980 ho         1 E8G       0.445000
@<TRIPOS>BOND
     1     1     2 1   
     2     1    23 1   
     3     1    24 1   
     4     1    25 1   
     5     2     3 ar  
     6     2     8 ar  
     7     3     4 1   
     8     3     5 ar  
     9     4    26 1   
    10     4    27 1   
    11     4    28 1   
    12     5     6 ar  
    13     5    29 1   
    14     6     7 ar  
    15     6    30 1   
    16     7     8 ar  
    17     7    31 1   
    18     8     9 1   
    19     9    10 1   
    20     9    32 1   
    21     9    33 1   
    22    10    11 1   
    23    10    34 1   
    24    11    12 2   
    25    11    13 1   
    26    13    14 1   
    27    13    35 1   
    28    14    15 1   
    29    14    19 1   
    30    14    36 1   
    31    15    16 1   
    32    15    37 1   
    33    15    38 1   
    34    16    17 1   
    35    16    18 1   
    36    16    39 1   
    37    17    40 1   
    38    17    41 1   
    39    17    42 1   
    40    18    43 1   
    41    18    44 1   
    42    18    45 1   
    43    19    20 2   
    44    19    21 1   
    45    21    22 1   
    46    21    46 1   
    47    22    47 1   
@<TRIPOS>SUBSTRUCTURE
     1 E8G         1 TEMP              0 ****  ****    0 ROOT
