@<TRIPOS>MOLECULE
E8G
   47    47     1     0     0
SMALL
bcc


@<TRIPOS>ATOM
      1 CD1         -3.4100     1.7740     0.9080 c3         1 E8G      -0.053800
      2 CG1         -4.0650     0.5590     0.3150 ca         1 E8G      -0.052300
      3 C3          -5.2700     0.1010     0.8730 ca         1 E8G      -0.082300
      4 C4          -5.8830     0.8090     2.0460 c3         1 E8G      -0.047800
      5 C5          -5.8970    -1.0180     0.3330 ca         1 E8G      -0.116000
      6 C6          -5.3490    -1.6920    -0.7480 ca         1 E8G      -0.132000
      7 CG2         -4.1560    -1.2460    -1.2910 ca         1 E8G      -0.116000
      8 CB          -3.5090    -0.1270    -0.7720 ca         1 E8G      -0.114300
      9 CA          -2.2000     0.2890    -1.3900 c3         1 E8G       0.163300
     10 N           -1.1050    -0.0350    -0.4970 ns         1 E8G      -0.583900
     11 C10          0.1830     0.1740    -0.8680 c          1 E8G       0.779100
     12 O            0.4810     0.7490    -1.9110 o          1 E8G      -0.649100
     13 N2           1.1130    -0.3120     0.0020 ns         1 E8G      -0.584900
     14 C11          2.5240    -0.0780    -0.1880 c3         1 E8G       0.051700
     15 C12          2.9830     1.2660     0.3920 c3         1 E8G      -0.097400
     16 C13          4.4660     1.5930     0.2060 c3         1 E8G      -0.057700
     17 C14          4.8460     1.7120    -1.2670 c3         1 E8G      -0.088100
     18 C15          4.8020     2.8860     0.9430 c3         1 E8G      -0.088100
     19 C16          3.2560    -1.2210     0.5030 c          1 E8G       0.662100
     20 O2           3.0390    -1.5170     1.6650 o          1 E8G      -0.579100
     21 N3           4.1750    -1.8220    -0.2670 ns         1 E8G      -0.448400
     22 O3           4.8310    -2.9250     0.1860 oh         1 E8G      -0.383100
     23 H1          -3.0990     1.5910     1.9390 hc         1 E8G       0.046033
     24 H2          -2.5290     2.0930     0.3590 hc         1 E8G       0.046033
     25 H3          -4.1030     2.6180     0.9370 hc         1 E8G       0.046033
     26 H4          -6.1350     1.8440     1.8070 hc         1 E8G       0.042367
     27 H5          -6.7950     0.3130     2.3720 hc         1 E8G       0.042367
     28 H6          -5.1990     0.8440     2.8970 hc         1 E8G       0.042367
     29 H7          -6.8280    -1.3630     0.7660 ha         1 E8G       0.130000
     30 H8          -5.8480    -2.5590    -1.1600 ha         1 E8G       0.134000
     31 H9          -3.7180    -1.7730    -2.1300 ha         1 E8G       0.132000
     32 H10         -2.0810    -0.2160    -2.3530 h1         1 E8G       0.056200
     33 H11         -2.1960     1.3610    -1.6030 h1         1 E8G       0.056200
     34 H12         -1.3000    -0.6750     0.2570 hn         1 E8G       0.314500
     35 H13          0.8200    -0.5900     0.9260 hn         1 E8G       0.324500
     36 H14          2.7190    -0.0980    -1.2610 h1         1 E8G       0.085700
     37 H15          2.3850     2.0500    -0.0810 hc         1 E8G       0.060200
     38 H16          2.7350     1.2810     1.4580 hc         1 E8G       0.060200
     39 H17          5.0660     0.7920     0.6530 hc         1 E8G       0.045700
     40 H18          4.2520     2.4890    -1.7560 hc         1 E8G       0.034367
     41 H19          5.8980     1.9810    -1.3770 hc         1 E8G       0.034367
     42 H20          4.6920     0.7860    -1.8220 hc         1 E8G       0.034367
     43 H21          4.5580     2.8170     2.0040 hc         1 E8G       0.034367
     44 H22          5.8650     3.1200     0.8600 hc         1 E8G       0.034367
     45 H23          4.2450     3.7280     0.5260 hc         1 E8G       0.034367
     46 H24          4.2300    -1.6740    -1.2640 hn         1 E8G       0.341500
     47 H25          5.6800    -2.6140     0.5280 ho         1 E8G       0.406000
@<TRIPOS>BOND
     1     1     2 1   
     2     1    23 1   
     3     1    24 1   
     4     1    25 1   
     5     2     3 ar  
     6     2     8 ar  
     7     3     4 1   
     8     3     5 ar  
     9     4    26 1   
    10     4    27 1   
    11     4    28 1   
    12     5     6 ar  
    13     5    29 1   
    14     6     7 ar  
    15     6    30 1   
    16     7     8 ar  
    17     7    31 1   
    18     8     9 1   
    19     9    10 1   
    20     9    32 1   
    21     9    33 1   
    22    10    11 1   
    23    10    34 1   
    24    11    12 2   
    25    11    13 1   
    26    13    14 1   
    27    13    35 1   
    28    14    15 1   
    29    14    19 1   
    30    14    36 1   
    31    15    16 1   
    32    15    37 1   
    33    15    38 1   
    34    16    17 1   
    35    16    18 1   
    36    16    39 1   
    37    17    40 1   
    38    17    41 1   
    39    17    42 1   
    40    18    43 1   
    41    18    44 1   
    42    18    45 1   
    43    19    20 2   
    44    19    21 1   
    45    21    22 1   
    46    21    46 1   
    47    22    47 1   
@<TRIPOS>SUBSTRUCTURE
     1 E8G         1 TEMP              0 ****  ****    0 ROOT
