@<TRIPOS>MOLECULE
E8H
   69    73     1     0     0
SMALL
No Charge or Current Charge


@<TRIPOS>ATOM
      1 C1          -4.9380     5.3130    -1.2850 c3         1 E8H       0.144900
      2 C2          -3.4870     3.4320    -0.5880 ca         1 E8H       0.126100
      3 C3          -4.5500     2.5060    -0.6550 ca         1 E8H      -0.184000
      4 C4          -4.3370     1.1530    -0.3470 ca         1 E8H      -0.091000
      5 C5          -3.0600     0.6830     0.0390 ca         1 E8H      -0.126900
      6 C6          -1.9990     1.6220     0.1040 ca         1 E8H      -0.142000
      7 C7          -2.2020     2.9860    -0.2070 ca         1 E8H       0.111100
      8 C8           0.1790     3.5500     0.2000 c3         1 E8H       0.145900
      9 C9          -2.8080    -0.7730     0.3700 ce         1 E8H       0.411900
     10 C10          0.2580    -2.7010     0.3690 c6         1 E8H       0.134700
     11 C11          1.0550    -2.4680     1.6820 c6         1 E8H      -0.112400
     12 C12          2.5710    -2.6740     1.4550 c6         1 E8H       0.096000
     13 O1          -3.6660     4.7730    -0.8880 os         1 E8H      -0.316100
     14 O2          -1.1700     3.9100    -0.1520 os         1 E8H      -0.327100
     15 N1          -1.6120    -1.1520     0.7160 n2         1 E8H      -0.458300
     16 N2          -1.1990    -2.4740     0.5760 n          1 E8H      -0.179800
     17 N3           3.0500    -1.7970     0.3550 n          1 E8H      -0.402800
     18 C13          2.3580    -2.0660    -0.9350 c6         1 E8H       0.096000
     19 C14          0.8410    -1.8240    -0.7780 c6         1 E8H      -0.112400
     20 C15          3.8720    -0.6680     0.5960 c          1 E8H       0.594100
     21 O3           4.2880    -0.4310     1.7250 o          1 E8H      -0.599100
     22 C16          4.2560     0.2370    -0.6000 c3         1 E8H       0.017000
     23 N4           5.0970     1.4180    -0.2520 n          1 E8H      -0.370400
     24 C17          6.4370     1.4930    -0.6060 c          1 E8H       0.579500
     25 O4           7.1470     0.5430    -0.8990 o          1 E8H      -0.507000
     26 C18          6.8150     2.9470    -0.2840 c5         1 E8H      -0.164900
     27 C19          5.8110     3.3070     0.8520 c5         1 E8H      -0.164900
     28 C20          4.5720     2.4850     0.4670 c          1 E8H       0.579500
     29 O5           3.3860     2.7640     0.5510 o          1 E8H      -0.507000
     30 C21         -2.1120    -3.5440     0.7950 c          1 E8H       0.561000
     31 O6          -1.7360    -4.7030     0.9320 o          1 E8H      -0.533000
     32 C22         -3.5970    -3.1360     0.9570 c6         1 E8H      -0.141700
     33 C23         -4.6370    -4.2530     0.6520 c6         1 E8H      -0.028200
     34 C24         -4.9340    -4.4080    -0.8300 c2         1 E8H      -0.210200
     35 C25         -4.6310    -3.4740    -1.7440 c2         1 E8H      -0.224200
     36 C26         -3.9450    -2.1590    -1.4090 c6         1 E8H      -0.037200
     37 C27         -3.8930    -1.8450     0.1180 c6         1 E8H      -0.130000
     38 H1          -5.6880     5.1650    -0.4970 h1         1 E8H       0.040700
     39 H2          -4.8510     6.3910    -1.4730 h1         1 E8H       0.040700
     40 H3          -5.2940     4.8360    -2.2070 h1         1 E8H       0.040700
     41 H4          -5.5490     2.8160    -0.9460 ha         1 E8H       0.120000
     42 H5          -5.1870     0.4810    -0.4170 ha         1 E8H       0.112000
     43 H6          -1.0110     1.2810     0.3970 ha         1 E8H       0.141000
     44 H7           0.8280     4.4340     0.1730 h1         1 E8H       0.046033
     45 H8           0.2200     3.1310     1.2130 h1         1 E8H       0.046033
     46 H9           0.5820     2.8110    -0.5040 h1         1 E8H       0.046033
     47 H10          0.4040    -3.7500     0.0740 h1         1 E8H       0.080700
     48 H11          0.8800    -1.4490     2.0530 hc         1 E8H       0.063450
     49 H12          0.7010    -3.1540     2.4630 hc         1 E8H       0.063450
     50 H13          3.1150    -2.4740     2.3890 h1         1 E8H       0.058950
     51 H14          2.7650    -3.7230     1.1880 h1         1 E8H       0.058950
     52 H15          2.7490    -1.4480    -1.7530 h1         1 E8H       0.058950
     53 H16          2.5320    -3.1140    -1.2200 h1         1 E8H       0.058950
     54 H17          0.3270    -2.0520    -1.7210 hc         1 E8H       0.063450
     55 H18          0.6720    -0.7570    -0.5760 hc         1 E8H       0.063450
     56 H19          4.7740    -0.3900    -1.3360 h1         1 E8H       0.084700
     57 H20          3.3250     0.5910    -1.0590 h1         1 E8H       0.084700
     58 H21          7.8790     3.0520    -0.0460 hc         1 E8H       0.087450
     59 H22          6.5750     3.5530    -1.1650 hc         1 E8H       0.087450
     60 H23          6.1940     2.9020     1.7960 hc         1 E8H       0.087450
     61 H24          5.5760     4.3700     0.9770 hc         1 E8H       0.087450
     62 H25         -3.6830    -2.8460     2.0130 hc         1 E8H       0.079700
     63 H26         -4.3020    -5.2120     1.0700 hc         1 E8H       0.063200
     64 H27         -5.5790    -4.0190     1.1680 hc         1 E8H       0.063200
     65 H28         -5.4250    -5.3370    -1.1270 ha         1 E8H       0.177000
     66 H29         -4.8710    -3.6360    -2.7970 ha         1 E8H       0.176000
     67 H30         -2.9260    -2.1930    -1.8210 hc         1 E8H       0.057700
     68 H31         -4.4530    -1.3400    -1.9370 hc         1 E8H       0.057700
     69 H32         -4.8720    -1.4720     0.4410 hc         1 E8H       0.074700
@<TRIPOS>BOND
     1     1    13 1   
     2     1    38 1   
     3     1    39 1   
     4     1    40 1   
     5     2     3 ar  
     6     2     7 ar  
     7     2    13 1   
     8     3     4 ar  
     9     3    41 1   
    10     4     5 ar  
    11     4    42 1   
    12     5     6 ar  
    13     5     9 1   
    14     6     7 ar  
    15     6    43 1   
    16     7    14 1   
    17     8    14 1   
    18     8    44 1   
    19     8    45 1   
    20     8    46 1   
    21     9    15 2   
    22     9    37 1   
    23    10    11 1   
    24    10    16 1   
    25    10    19 1   
    26    10    47 1   
    27    11    12 1   
    28    11    48 1   
    29    11    49 1   
    30    12    17 1   
    31    12    50 1   
    32    12    51 1   
    33    15    16 1   
    34    16    30 1   
    35    17    18 1   
    36    17    20 1   
    37    18    19 1   
    38    18    52 1   
    39    18    53 1   
    40    19    54 1   
    41    19    55 1   
    42    20    21 2   
    43    20    22 1   
    44    22    23 1   
    45    22    56 1   
    46    22    57 1   
    47    23    24 1   
    48    23    28 1   
    49    24    25 2   
    50    24    26 1   
    51    26    27 1   
    52    26    58 1   
    53    26    59 1   
    54    27    28 1   
    55    27    60 1   
    56    27    61 1   
    57    28    29 2   
    58    30    31 2   
    59    30    32 1   
    60    32    33 1   
    61    32    37 1   
    62    32    62 1   
    63    33    34 1   
    64    33    63 1   
    65    33    64 1   
    66    34    35 2   
    67    34    65 1   
    68    35    36 1   
    69    35    66 1   
    70    36    37 1   
    71    36    67 1   
    72    36    68 1   
    73    37    69 1   
@<TRIPOS>SUBSTRUCTURE
     1 E8H         1 TEMP              0 ****  ****    0 ROOT
