@<TRIPOS>MOLECULE
E8H
   69    73     1     0     0
SMALL
abcg2


@<TRIPOS>ATOM
      1 C1          -4.9350     5.2820    -0.6450 c3         1 E8H       0.144900
      2 C2          -3.5100     3.4270    -0.2990 ca         1 E8H       0.126100
      3 C3          -4.5450     2.5110    -0.3590 ca         1 E8H      -0.184000
      4 C4          -4.2950     1.1470    -0.2230 ca         1 E8H      -0.091000
      5 C5          -3.0070     0.6780    -0.0200 ca         1 E8H      -0.126900
      6 C6          -1.9560     1.6100     0.0430 ca         1 E8H      -0.142000
      7 C7          -2.1900     2.9600    -0.0960 ca         1 E8H       0.111100
      8 C8           0.1070     3.5050     0.0480 c3         1 E8H       0.145900
      9 C9          -2.7140    -0.7590     0.0990 ce         1 E8H       0.411900
     10 C10          0.2730    -2.6400     0.3970 c6         1 E8H       0.134700
     11 C11          0.9130    -2.1370     1.6880 c6         1 E8H      -0.112400
     12 C12          2.4230    -2.3420     1.6460 c6         1 E8H       0.096000
     13 O1          -3.6420     4.7550    -0.4220 os         1 E8H      -0.316100
     14 O2          -1.2420     3.9130    -0.0630 os         1 E8H      -0.327100
     15 N1          -1.5100    -1.0970     0.3600 n2         1 E8H      -0.458300
     16 N2          -1.1690    -2.4160     0.3950 n          1 E8H      -0.179800
     17 N3           2.9850    -1.7020     0.4680 n          1 E8H      -0.402800
     18 C13          2.4410    -2.2240    -0.7750 c6         1 E8H       0.096000
     19 C14          0.9320    -2.0140    -0.8280 c6         1 E8H      -0.112400
     20 C15          3.7280    -0.5870     0.5770 c          1 E8H       0.594100
     21 O3           4.0870    -0.1150     1.6440 o          1 E8H      -0.599100
     22 C16          4.1390     0.0970    -0.7290 c3         1 E8H       0.017000
     23 N4           4.9380     1.2500    -0.4410 n          1 E8H      -0.370400
     24 C17          6.3030     1.1950    -0.2620 c          1 E8H       0.579500
     25 O4           6.9660     0.2000    -0.4220 o          1 E8H      -0.507000
     26 C18          6.7770     2.5650     0.1460 c5         1 E8H      -0.164900
     27 C19          5.5130     3.4090     0.2460 c5         1 E8H      -0.164900
     28 C20          4.3890     2.4710    -0.1100 c          1 E8H       0.579500
     29 O5           3.2060     2.7040    -0.1260 o          1 E8H      -0.507000
     30 C21         -2.0530    -3.4350     0.6080 c          1 E8H       0.561000
     31 O6          -1.6960    -4.5960     0.6950 o          1 E8H      -0.533000
     32 C22         -3.4830    -2.9800     0.7810 c6         1 E8H      -0.141700
     33 C23         -4.4960    -4.0970     0.5790 c6         1 E8H      -0.028200
     34 C24         -4.7600    -4.3700    -0.8690 c2         1 E8H      -0.210200
     35 C25         -4.4140    -3.5420    -1.8510 c2         1 E8H      -0.224200
     36 C26         -3.7280    -2.2300    -1.6290 c6         1 E8H      -0.037200
     37 C27         -3.7570    -1.8050    -0.1520 c6         1 E8H      -0.130000
     38 H1          -5.6140     5.0610     0.1820 h1         1 E8H       0.040700
     39 H2          -4.8190     6.3600    -0.7250 h1         1 E8H       0.040700
     40 H3          -5.3750     4.9050    -1.5720 h1         1 E8H       0.040700
     41 H4          -5.5640     2.8380    -0.5170 ha         1 E8H       0.120000
     42 H5          -5.1360     0.4710    -0.2760 ha         1 E8H       0.112000
     43 H6          -0.9530     1.2400     0.2000 ha         1 E8H       0.141000
     44 H7           0.7080     4.4100     0.0060 h1         1 E8H       0.046033
     45 H8           0.3050     2.9970     0.9960 h1         1 E8H       0.046033
     46 H9           0.4030     2.8480    -0.7730 h1         1 E8H       0.046033
     47 H10          0.4120    -3.7210     0.3410 h1         1 E8H       0.080700
     48 H11          0.6910    -1.0760     1.8260 hc         1 E8H       0.063450
     49 H12          0.4990    -2.6730     2.5450 hc         1 E8H       0.063450
     50 H13          2.8940    -1.9420     2.5400 h1         1 E8H       0.058950
     51 H14          2.6580    -3.4090     1.6020 h1         1 E8H       0.058950
     52 H15          2.9170    -1.7650    -1.6370 h1         1 E8H       0.058950
     53 H16          2.6750    -3.2910    -0.8270 h1         1 E8H       0.058950
     54 H17          0.5350    -2.4650    -1.7390 hc         1 E8H       0.063450
     55 H18          0.7180    -0.9440    -0.8710 hc         1 E8H       0.063450
     56 H19          4.7110    -0.5820    -1.3620 h1         1 E8H       0.084700
     57 H20          3.2620     0.4110    -1.2960 h1         1 E8H       0.084700
     58 H21          7.3150     2.4890     1.0920 hc         1 E8H       0.087450
     59 H22          7.4830     2.9380    -0.5960 hc         1 E8H       0.087450
     60 H23          5.3430     3.8070     1.2470 hc         1 E8H       0.087450
     61 H24          5.5060     4.2530    -0.4440 hc         1 E8H       0.087450
     62 H25         -3.5560    -2.6200     1.8160 hc         1 E8H       0.079700
     63 H26         -4.1620    -5.0070     1.0790 hc         1 E8H       0.063200
     64 H27         -5.4310    -3.8180     1.0750 hc         1 E8H       0.063200
     65 H28         -5.2690    -5.2960    -1.1110 ha         1 E8H       0.177000
     66 H29         -4.6260    -3.8130    -2.8790 ha         1 E8H       0.176000
     67 H30         -2.6990    -2.2910    -2.0010 hc         1 E8H       0.057700
     68 H31         -4.2050    -1.4530    -2.2310 hc         1 E8H       0.057700
     69 H32         -4.7560    -1.4320     0.0770 hc         1 E8H       0.074700
@<TRIPOS>BOND
     1     1    13 1   
     2     1    38 1   
     3     1    39 1   
     4     1    40 1   
     5     2     3 ar  
     6     2     7 ar  
     7     2    13 1   
     8     3     4 ar  
     9     3    41 1   
    10     4     5 ar  
    11     4    42 1   
    12     5     6 ar  
    13     5     9 1   
    14     6     7 ar  
    15     6    43 1   
    16     7    14 1   
    17     8    14 1   
    18     8    44 1   
    19     8    45 1   
    20     8    46 1   
    21     9    15 2   
    22     9    37 1   
    23    10    11 1   
    24    10    16 1   
    25    10    19 1   
    26    10    47 1   
    27    11    12 1   
    28    11    48 1   
    29    11    49 1   
    30    12    17 1   
    31    12    50 1   
    32    12    51 1   
    33    15    16 1   
    34    16    30 1   
    35    17    18 1   
    36    17    20 1   
    37    18    19 1   
    38    18    52 1   
    39    18    53 1   
    40    19    54 1   
    41    19    55 1   
    42    20    21 2   
    43    20    22 1   
    44    22    23 1   
    45    22    56 1   
    46    22    57 1   
    47    23    24 1   
    48    23    28 1   
    49    24    25 2   
    50    24    26 1   
    51    26    27 1   
    52    26    58 1   
    53    26    59 1   
    54    27    28 1   
    55    27    60 1   
    56    27    61 1   
    57    28    29 2   
    58    30    31 2   
    59    30    32 1   
    60    32    33 1   
    61    32    37 1   
    62    32    62 1   
    63    33    34 1   
    64    33    63 1   
    65    33    64 1   
    66    34    35 2   
    67    34    65 1   
    68    35    36 1   
    69    35    66 1   
    70    36    37 1   
    71    36    67 1   
    72    36    68 1   
    73    37    69 1   
@<TRIPOS>SUBSTRUCTURE
     1 E8H         1 TEMP              0 ****  ****    0 ROOT
