@<TRIPOS>MOLECULE
E8I
   54    57     1     0     0
SMALL
abcg2


@<TRIPOS>ATOM
      1 C1          -7.6100    16.0860    18.7590 ca         1 E8I       0.419900
      2 C2          -8.7700    14.7160    20.1650 ca         1 E8I       0.439300
      3 C3          -9.5790    16.8080    19.4920 ca         1 E8I       0.179500
      4 C4          -9.8030    15.6490    20.2510 ca         1 E8I      -0.266800
      5 C5         -11.0720    15.7900    20.8930 cc         1 E8I      -0.161200
      6 C6         -11.5550    17.0010    20.5060 cd         1 E8I      -0.210100
      7 N7         -10.6520    17.6120    19.6600 na         1 E8I      -0.328400
      8 N8          -6.5020    16.2340    17.9940 nv         1 E8I      -1.049900
      9 N9          -8.5080    17.0610    18.7440 nb         1 E8I      -0.303000
     10 C18         -7.9600    12.5780    20.6980 ca         1 E8I       0.049100
     11 C19         -6.9420    12.4330    21.6210 ca         1 E8I      -0.079500
     12 C20         -6.0340    11.3900    21.5040 ca         1 E8I      -0.150000
     13 C21         -6.1470    10.4740    20.4570 ca         1 E8I       0.024000
     14 C22         -7.1800    10.6430    19.5300 ca         1 E8I      -0.150000
     15 C23         -8.0780    11.6890    19.6430 ca         1 E8I      -0.079500
     16 C25         -4.5990     8.7060    21.2350 c          1 E8I       0.653100
     17 C28         -3.0190     6.8960    21.6200 c3         1 E8I      -0.033300
     18 C30         -1.8300     7.7680    22.1010 c          1 E8I       0.715000
     19 C31         -2.5190     5.6860    20.8280 c3         1 E8I      -0.061400
     20 C34         -1.6190     4.7390    21.6210 c3         1 E8I      -0.032100
     21 C35         -1.2640     3.5250    20.8080 ca         1 E8I      -0.055300
     22 C36         -2.0150     2.3550    20.9010 ca         1 E8I      -0.111000
     23 C37         -1.7100     1.2460    20.1240 ca         1 E8I      -0.118500
     24 C38         -0.6440     1.2890    19.2350 ca         1 E8I      -0.132000
     25 C39          0.1120     2.4510    19.1300 ca         1 E8I      -0.118500
     26 C40         -0.1980     3.5560    19.9120 ca         1 E8I      -0.111000
     27 N10         -7.7010    14.9250    19.4410 nb         1 E8I      -0.323000
     28 N24         -5.2590     9.4180    20.2550 ns         1 E8I      -0.166000
     29 N27         -3.9400     7.6210    20.7670 ns         1 E8I      -0.471900
     30 O17         -8.8980    13.5800    20.8610 os         1 E8I      -0.353400
     31 O26         -4.6340     9.0080    22.4180 o          1 E8I      -0.612100
     32 O32         -1.3810     7.5030    23.2330 o          1 E8I      -0.720500
     33 O33         -1.4070     8.6170    21.2950 o          1 E8I      -0.720500
     34 H1         -11.5600    15.0900    21.5520 ha         1 E8I       0.211000
     35 H2         -12.4790    17.4920    20.7620 h4         1 E8I       0.209000
     36 H3         -10.7740    18.5160    19.2320 hn         1 E8I       0.353000
     37 H4          -6.2790    17.1590    17.6690 hn         1 E8I       0.487500
     38 H5          -5.7170    15.6360    18.1900 hn         1 E8I       0.487500
     39 H6          -6.8460    13.1370    22.4380 ha         1 E8I       0.116500
     40 H7          -5.2370    11.3060    22.2260 ha         1 E8I       0.133500
     41 H8          -7.2850     9.9420    18.7110 ha         1 E8I       0.133500
     42 H9          -8.8750    11.8000    18.9180 ha         1 E8I       0.116500
     43 H10         -3.5670     6.5290    22.4920 h1         1 E8I       0.061700
     44 H11         -1.9810     6.0340    19.9390 hc         1 E8I       0.022700
     45 H12         -3.3850     5.1250    20.4650 hc         1 E8I       0.022700
     46 H13         -2.1310     4.4360    22.5370 hc         1 E8I       0.069200
     47 H14         -0.7070     5.2550    21.9250 hc         1 E8I       0.069200
     48 H15         -2.8490     2.3110    21.5930 ha         1 E8I       0.115500
     49 H16         -2.3040     0.3450    20.2140 ha         1 E8I       0.099500
     50 H17         -0.4020     0.4250    18.6290 ha         1 E8I       0.097000
     51 H18          0.9470     2.4950    18.4420 ha         1 E8I       0.099500
     52 H19          0.4000     4.4570    19.8270 ha         1 E8I       0.115500
     53 H20         -5.3090     8.9910    19.3420 hn         1 E8I       0.134000
     54 H21         -3.7780     7.5570    19.7730 hn         1 E8I       0.287500
@<TRIPOS>BOND
     1     1     8 1   
     2     1     9 ar  
     3     1    27 ar  
     4     2     4 ar  
     5     2    27 ar  
     6     2    30 1   
     7     3     4 ar  
     8     3     7 1   
     9     3     9 ar  
    10     4     5 1   
    11     5     6 2   
    12     5    34 1   
    13     6     7 1   
    14     6    35 1   
    15     7    36 1   
    16     8    37 1   
    17     8    38 1   
    18    10    11 ar  
    19    10    15 ar  
    20    10    30 1   
    21    11    12 ar  
    22    11    39 1   
    23    12    13 ar  
    24    12    40 1   
    25    13    14 ar  
    26    13    28 1   
    27    14    15 ar  
    28    14    41 1   
    29    15    42 1   
    30    16    28 1   
    31    16    29 1   
    32    16    31 2   
    33    17    18 1   
    34    17    19 1   
    35    17    29 1   
    36    17    43 1   
    37    18    32 1   
    38    18    33 1   
    39    19    20 1   
    40    19    44 1   
    41    19    45 1   
    42    20    21 1   
    43    20    46 1   
    44    20    47 1   
    45    21    22 ar  
    46    21    26 ar  
    47    22    23 ar  
    48    22    48 1   
    49    23    24 ar  
    50    23    49 1   
    51    24    25 ar  
    52    24    50 1   
    53    25    26 ar  
    54    25    51 1   
    55    26    52 1   
    56    28    53 1   
    57    29    54 1   
@<TRIPOS>SUBSTRUCTURE
     1 E8I         1 TEMP              0 ****  ****    0 ROOT
