@<TRIPOS>MOLECULE
E8I
   54    57     1     0     0
SMALL
No Charge or Current Charge


@<TRIPOS>ATOM
      1 C1          -8.0600    16.4770    20.3580 ca         1 E8I       0.419900
      2 C2          -8.9080    14.3680    20.1460 ca         1 E8I       0.439300
      3 C3         -10.1580    16.3170    19.4980 ca         1 E8I       0.179500
      4 C4         -10.0730    14.9560    19.6300 ca         1 E8I      -0.266800
      5 C5         -11.2970    14.3740    19.1690 cc         1 E8I      -0.161200
      6 C6         -12.1020    15.4260    18.7630 cd         1 E8I      -0.210100
      7 N7         -11.3960    16.6400    18.9650 na         1 E8I      -0.328400
      8 N8          -7.0300    17.2660    20.7330 nv         1 E8I      -1.049900
      9 N9          -9.1380    17.1120    19.8640 nb         1 E8I      -0.303000
     10 C18         -7.6760    12.2850    20.2750 ca         1 E8I       0.049100
     11 C19         -7.4820    11.2650    21.2190 ca         1 E8I      -0.079500
     12 C20         -6.2960    10.5090    21.2120 ca         1 E8I      -0.150000
     13 C21         -5.2920    10.7620    20.2510 ca         1 E8I       0.024000
     14 C22         -5.5040    11.7760    19.2960 ca         1 E8I      -0.150000
     15 C23         -6.6890    12.5330    19.3020 ca         1 E8I      -0.079500
     16 C25         -3.5320     9.0390    20.9720 c          1 E8I       0.653100
     17 C28         -1.4860     7.5380    21.1180 c3         1 E8I      -0.033300
     18 C30          0.0200     7.7250    20.7500 c          1 E8I       0.715000
     19 C31         -2.0240     6.1370    20.7250 c3         1 E8I      -0.061400
     20 C34         -1.2960     4.9670    21.4240 c3         1 E8I      -0.032100
     21 C35         -1.8990     3.6180    21.0560 ca         1 E8I      -0.055300
     22 C36         -2.9300     3.0620    21.8400 ca         1 E8I      -0.111000
     23 C37         -3.4890     1.8180    21.4970 ca         1 E8I      -0.118500
     24 C38         -3.0210     1.1240    20.3690 ca         1 E8I      -0.132000
     25 C39         -1.9960     1.6740    19.5820 ca         1 E8I      -0.118500
     26 C40         -1.4370     2.9180    19.9240 ca         1 E8I      -0.111000
     27 N10         -7.8800    15.1580    20.5280 nb         1 E8I      -0.323000
     28 N24         -4.0700    10.0400    20.1790 ns         1 E8I      -0.166000
     29 N27         -2.3040     8.6170    20.5120 ns         1 E8I      -0.471900
     30 O17         -8.8540    12.9970    20.2910 os         1 E8I      -0.353400
     31 O26         -4.0560     8.5700    21.9730 o          1 E8I      -0.612100
     32 O32          0.8310     7.7940    21.6630 o          1 E8I      -0.720500
     33 O33          0.3170     7.9020    19.5760 o          1 E8I      -0.720500
     34 H1         -11.5600    13.3160    19.1360 ha         1 E8I       0.211000
     35 H2         -13.1090    15.4020    18.3500 h4         1 E8I       0.209000
     36 H3         -11.7260    17.5790    18.7630 hn         1 E8I       0.353000
     37 H4          -7.2020    18.2620    20.8390 hn         1 E8I       0.487500
     38 H5          -6.2990    16.8620    21.3140 hn         1 E8I       0.487500
     39 H6          -8.2510    11.0620    21.9600 ha         1 E8I       0.116500
     40 H7          -6.1810     9.7300    21.9590 ha         1 E8I       0.133500
     41 H8          -4.7470    11.9800    18.5420 ha         1 E8I       0.133500
     42 H9          -6.8390    13.3040    18.5510 ha         1 E8I       0.116500
     43 H10         -1.5600     7.6380    22.2090 h1         1 E8I       0.061700
     44 H11         -1.9480     6.0110    19.6380 hc         1 E8I       0.022700
     45 H12         -3.0900     6.0800    20.9750 hc         1 E8I       0.022700
     46 H13         -1.3390     5.1140    22.5110 hc         1 E8I       0.069200
     47 H14         -0.2320     4.9830    21.1570 hc         1 E8I       0.069200
     48 H15         -3.2990     3.5940    22.7130 ha         1 E8I       0.115500
     49 H16         -4.2840     1.3940    22.1060 ha         1 E8I       0.099500
     50 H17         -3.4540     0.1620    20.1040 ha         1 E8I       0.097000
     51 H18         -1.6340     1.1380    18.7070 ha         1 E8I       0.099500
     52 H19         -0.6450     3.3380    19.3090 ha         1 E8I       0.115500
     53 H20         -3.4870    10.3080    19.3980 hn         1 E8I       0.134000
     54 H21         -1.9450     9.0690    19.6790 hn         1 E8I       0.287500
@<TRIPOS>BOND
     1     1     8 1   
     2     1     9 ar  
     3     1    27 ar  
     4     2     4 ar  
     5     2    27 ar  
     6     2    30 1   
     7     3     4 ar  
     8     3     7 1   
     9     3     9 ar  
    10     4     5 1   
    11     5     6 2   
    12     5    34 1   
    13     6     7 1   
    14     6    35 1   
    15     7    36 1   
    16     8    37 1   
    17     8    38 1   
    18    10    11 ar  
    19    10    15 ar  
    20    10    30 1   
    21    11    12 ar  
    22    11    39 1   
    23    12    13 ar  
    24    12    40 1   
    25    13    14 ar  
    26    13    28 1   
    27    14    15 ar  
    28    14    41 1   
    29    15    42 1   
    30    16    28 1   
    31    16    29 1   
    32    16    31 2   
    33    17    18 1   
    34    17    19 1   
    35    17    29 1   
    36    17    43 1   
    37    18    32 1   
    38    18    33 1   
    39    19    20 1   
    40    19    44 1   
    41    19    45 1   
    42    20    21 1   
    43    20    46 1   
    44    20    47 1   
    45    21    22 ar  
    46    21    26 ar  
    47    22    23 ar  
    48    22    48 1   
    49    23    24 ar  
    50    23    49 1   
    51    24    25 ar  
    52    24    50 1   
    53    25    26 ar  
    54    25    51 1   
    55    26    52 1   
    56    28    53 1   
    57    29    54 1   
@<TRIPOS>SUBSTRUCTURE
     1 E8I         1 TEMP              0 ****  ****    0 ROOT
