@<TRIPOS>MOLECULE
E8J
   62    64     1     0     0
SMALL
No Charge or Current Charge


@<TRIPOS>ATOM
      1 C17          2.6340     0.4360    -0.3700 c3         1 E8J      -0.116700
      2 C22          3.6390     1.9090     1.5250 c          1 E8J       0.602100
      3 C28          1.1270     0.5750    -0.0080 c          1 E8J       0.623100
      4 C01          7.0900    -4.3060     0.0960 c3         1 E8J      -0.089100
      5 C05          6.5620    -2.9530    -0.4170 c3         1 E8J      -0.074400
      6 C08          5.1650    -2.5980     0.1390 c3         1 E8J      -0.078400
      7 C11          4.6370    -1.2420    -0.3760 c3         1 E8J      -0.074400
      8 C14          3.2380    -0.8890     0.1850 c3         1 E8J      -0.073400
      9 C19          3.4450     1.7180     0.0120 c3         1 E8J      -0.159400
     10 O23          2.7480     2.3290     2.2510 o          1 E8J      -0.564100
     11 N24          4.9130     1.6170     2.0000 ns         1 E8J      -0.383400
     12 O26          5.3260     2.0190     3.3290 oh         1 E8J      -0.428100
     13 O29          0.7060     0.2110     1.0840 o          1 E8J      -0.593100
     14 N30          0.2260     1.0990    -0.9620 n          1 E8J      -0.396800
     15 C31          0.5870     1.9740    -2.1020 c5         1 E8J       0.109700
     16 C33          0.3300     3.4310    -1.5920 c5         1 E8J      -0.105400
     17 C36         -1.2340     3.5110    -1.4970 c5         1 E8J      -0.077400
     18 C39         -1.6820     2.0710    -1.9100 c5         1 E8J      -0.080700
     19 C41         -0.6410     1.7540    -3.0090 c5         1 E8J      -0.099400
     20 C44         -1.2460     1.1230    -0.7330 c5         1 E8J       0.027700
     21 C46         -1.9430    -0.2660    -0.8800 c          1 E8J       0.612100
     22 O47         -1.4400    -1.2960    -1.3160 o          1 E8J      -0.527100
     23 N48         -3.2250    -0.1610    -0.3780 ns         1 E8J      -0.316900
     24 C50         -4.2640    -1.1120    -0.2950 ca         1 E8J       0.444900
     25 N51         -4.2550    -2.0760    -1.2570 nb         1 E8J      -0.641000
     26 C52         -5.2910    -2.9570    -1.2000 ca         1 E8J       0.286900
     27 C54         -6.3170    -2.8680    -0.2180 ca         1 E8J       0.284900
     28 N56         -6.3450    -1.8920     0.7330 nb         1 E8J      -0.711000
     29 C57         -5.3130    -1.0020     0.6880 ca         1 E8J       0.503300
     30 O58         -5.2740     0.0320     1.6080 os         1 E8J      -0.473300
     31 C59         -6.2980     0.1820     2.6120 c3         1 E8J       0.162900
     32 H1           2.6900     0.3900    -1.4620 hc         1 E8J       0.064700
     33 H2           7.1760    -4.3000     1.1900 hc         1 E8J       0.032700
     34 H3           6.4160    -5.1210    -0.1940 hc         1 E8J       0.032700
     35 H4           8.0810    -4.5140    -0.3240 hc         1 E8J       0.032700
     36 H5           7.2740    -2.1650    -0.1420 hc         1 E8J       0.034700
     37 H6           6.5210    -2.9790    -1.5130 hc         1 E8J       0.034700
     38 H7           4.4570    -3.3900    -0.1360 hc         1 E8J       0.043200
     39 H8           5.2100    -2.5750     1.2350 hc         1 E8J       0.043200
     40 H9           5.3550    -0.4600    -0.1040 hc         1 E8J       0.029200
     41 H10          4.5900    -1.2670    -1.4720 hc         1 E8J       0.029200
     42 H11          3.2820    -0.8520     1.2810 hc         1 E8J       0.064700
     43 H12          2.5540    -1.7100    -0.0660 hc         1 E8J       0.064700
     44 H13          4.4260     1.6520    -0.4730 hc         1 E8J       0.063700
     45 H14          2.9230     2.5950    -0.3820 hc         1 E8J       0.063700
     46 H15          5.6610     1.4290     1.3350 hn         1 E8J       0.333500
     47 H16          5.7090     1.1960     3.7130 ho         1 E8J       0.449000
     48 H17          1.5620     1.7970    -2.5740 h1         1 E8J       0.077700
     49 H18          0.8130     3.6300    -0.6290 hc         1 E8J       0.058200
     50 H19          0.7180     4.1710    -2.3020 hc         1 E8J       0.058200
     51 H20         -1.5790     3.7900    -0.4940 hc         1 E8J       0.051700
     52 H21         -1.6310     4.2630    -2.1890 hc         1 E8J       0.051700
     53 H22         -2.7340     1.9960    -2.2130 hc         1 E8J       0.081700
     54 H23         -0.6790     2.4400    -3.8640 hc         1 E8J       0.072200
     55 H24         -0.7100     0.7280    -3.3920 hc         1 E8J       0.072200
     56 H25         -1.5000     1.5390     0.2520 h1         1 E8J       0.079700
     57 H26         -3.4630     0.7400     0.0160 hn         1 E8J       0.173000
     58 H27         -5.3060    -3.7460    -1.9500 h4         1 E8J       0.034100
     59 H28         -7.1320    -3.5910    -0.2020 h4         1 E8J       0.030100
     60 H29         -7.2830     0.3250     2.1490 h1         1 E8J       0.049700
     61 H30         -6.3430    -0.7010     3.2620 h1         1 E8J       0.049700
     62 H31         -6.0900     1.0560     3.2420 h1         1 E8J       0.049700
@<TRIPOS>BOND
     1     1     3 1   
     2     1     8 1   
     3     1     9 1   
     4     1    32 1   
     5     2     9 1   
     6     2    10 2   
     7     2    11 1   
     8     3    13 2   
     9     3    14 1   
    10     4     5 1   
    11     4    33 1   
    12     4    34 1   
    13     4    35 1   
    14     5     6 1   
    15     5    36 1   
    16     5    37 1   
    17     6     7 1   
    18     6    38 1   
    19     6    39 1   
    20     7     8 1   
    21     7    40 1   
    22     7    41 1   
    23     8    42 1   
    24     8    43 1   
    25     9    44 1   
    26     9    45 1   
    27    11    12 1   
    28    11    46 1   
    29    12    47 1   
    30    14    15 1   
    31    14    20 1   
    32    15    16 1   
    33    15    19 1   
    34    15    48 1   
    35    16    17 1   
    36    16    49 1   
    37    16    50 1   
    38    17    18 1   
    39    17    51 1   
    40    17    52 1   
    41    18    19 1   
    42    18    20 1   
    43    18    53 1   
    44    19    54 1   
    45    19    55 1   
    46    20    21 1   
    47    20    56 1   
    48    21    22 2   
    49    21    23 1   
    50    23    24 1   
    51    23    57 1   
    52    24    25 ar  
    53    24    29 ar  
    54    25    26 ar  
    55    26    27 ar  
    56    26    58 1   
    57    27    28 ar  
    58    27    59 1   
    59    28    29 ar  
    60    29    30 1   
    61    30    31 1   
    62    31    60 1   
    63    31    61 1   
    64    31    62 1   
@<TRIPOS>SUBSTRUCTURE
     1 E8J         1 TEMP              0 ****  ****    0 ROOT
