@<TRIPOS>MOLECULE
E8J
   62    64     1     0     0
SMALL
abcg2


@<TRIPOS>ATOM
      1 C17          2.4980     0.2770    -0.6110 c3         1 E8J      -0.116700
      2 C22          3.1290     1.9090     1.2210 c          1 E8J       0.602100
      3 C28          1.0140     0.4060    -0.2860 c          1 E8J       0.623100
      4 C01          6.8560    -4.3560     0.2220 c3         1 E8J      -0.089100
      5 C05          6.4150    -2.9760    -0.2460 c3         1 E8J      -0.074400
      6 C08          4.9650    -2.6640     0.1030 c3         1 E8J      -0.078400
      7 C11          4.5130    -1.2880    -0.3710 c3         1 E8J      -0.074400
      8 C14          3.0730    -0.9880     0.0280 c3         1 E8J      -0.073400
      9 C19          3.2870     1.5430    -0.2340 c3         1 E8J      -0.159400
     10 O23          2.0860     2.3420     1.6790 o          1 E8J      -0.564100
     11 N24          4.2260     1.6730     1.9650 ns         1 E8J      -0.383400
     12 O26          4.2740     2.0910     3.2600 oh         1 E8J      -0.428100
     13 O29          0.4910    -0.2330     0.6190 o          1 E8J      -0.593100
     14 N30          0.2670     1.2120    -1.0580 n          1 E8J      -0.396800
     15 C31          0.6400     2.1010    -2.1590 c5         1 E8J       0.109700
     16 C33          0.5480     3.5450    -1.6420 c5         1 E8J      -0.105400
     17 C36         -0.9810     3.7300    -1.4530 c5         1 E8J      -0.077400
     18 C39         -1.5530     2.3710    -1.8910 c5         1 E8J      -0.080700
     19 C41         -0.6060     2.0000    -3.0360 c5         1 E8J      -0.099400
     20 C44         -1.1550     1.3380    -0.8140 c5         1 E8J       0.027700
     21 C46         -1.8750     0.0060    -1.0010 c          1 E8J       0.612100
     22 O47         -1.5090    -0.8360    -1.7880 o          1 E8J      -0.527100
     23 N48         -2.9970    -0.0880    -0.2240 ns         1 E8J      -0.316900
     24 C50         -3.9340    -1.1080    -0.1910 ca         1 E8J       0.444900
     25 N51         -3.9490    -2.0580    -1.0860 nb         1 E8J      -0.641000
     26 C52         -4.8870    -3.0080    -0.9810 ca         1 E8J       0.286900
     27 C54         -5.8150    -2.9890     0.0280 ca         1 E8J       0.284900
     28 N56         -5.8170    -2.0120     0.9460 nb         1 E8J      -0.711000
     29 C57         -4.9050    -1.0900     0.8510 ca         1 E8J       0.503300
     30 O58         -4.8370    -0.0840     1.7180 os         1 E8J      -0.473300
     31 C59         -5.8040    -0.0330     2.7620 c3         1 E8J       0.162900
     32 H1           2.5920     0.1710    -1.6980 hc         1 E8J       0.064700
     33 H2           6.7490    -4.4580     1.3040 hc         1 E8J       0.032700
     34 H3           6.2580    -5.1410    -0.2430 hc         1 E8J       0.032700
     35 H4           7.9010    -4.5470    -0.0240 hc         1 E8J       0.032700
     36 H5           7.0650    -2.2150     0.1970 hc         1 E8J       0.034700
     37 H6           6.5510    -2.8960    -1.3290 hc         1 E8J       0.034700
     38 H7           4.3140    -3.4290    -0.3330 hc         1 E8J       0.043200
     39 H8           4.8320    -2.7350     1.1890 hc         1 E8J       0.043200
     40 H9           5.1940    -0.5370     0.0410 hc         1 E8J       0.029200
     41 H10          4.6170    -1.2270    -1.4600 hc         1 E8J       0.029200
     42 H11          2.9980    -0.9320     1.1170 hc         1 E8J       0.064700
     43 H12          2.4500    -1.8350    -0.2720 hc         1 E8J       0.064700
     44 H13          4.3340     1.3950    -0.5030 hc         1 E8J       0.063700
     45 H14          2.9480     2.4000    -0.8180 hc         1 E8J       0.063700
     46 H15          5.1270     1.4800     1.5520 hn         1 E8J       0.333500
     47 H16          4.0370     1.3260     3.8000 ho         1 E8J       0.449000
     48 H17          1.5850     1.8230    -2.6180 h1         1 E8J       0.077700
     49 H18          1.1070     3.6800    -0.7160 hc         1 E8J       0.058200
     50 H19          0.9530     4.2400    -2.3800 hc         1 E8J       0.058200
     51 H20         -1.2530     3.9800    -0.4270 hc         1 E8J       0.051700
     52 H21         -1.3680     4.5220    -2.0950 hc         1 E8J       0.051700
     53 H22         -2.6200     2.3800    -2.1110 hc         1 E8J       0.081700
     54 H23         -0.6140     2.7360    -3.8410 hc         1 E8J       0.072200
     55 H24         -0.7610     1.0070    -3.4540 hc         1 E8J       0.072200
     56 H25         -1.3570     1.7260     0.1910 h1         1 E8J       0.079700
     57 H26         -3.1430     0.6520     0.4460 hn         1 E8J       0.173000
     58 H27         -4.8810    -3.7910    -1.7280 h4         1 E8J       0.034100
     59 H28         -6.5740    -3.7560     0.1170 h4         1 E8J       0.030100
     60 H29         -6.8160     0.0470     2.3640 h1         1 E8J       0.049700
     61 H30         -5.7430    -0.9130     3.4030 h1         1 E8J       0.049700
     62 H31         -5.5690     0.8560     3.3400 h1         1 E8J       0.049700
@<TRIPOS>BOND
     1     1     3 1   
     2     1     8 1   
     3     1     9 1   
     4     1    32 1   
     5     2     9 1   
     6     2    10 2   
     7     2    11 1   
     8     3    13 2   
     9     3    14 1   
    10     4     5 1   
    11     4    33 1   
    12     4    34 1   
    13     4    35 1   
    14     5     6 1   
    15     5    36 1   
    16     5    37 1   
    17     6     7 1   
    18     6    38 1   
    19     6    39 1   
    20     7     8 1   
    21     7    40 1   
    22     7    41 1   
    23     8    42 1   
    24     8    43 1   
    25     9    44 1   
    26     9    45 1   
    27    11    12 1   
    28    11    46 1   
    29    12    47 1   
    30    14    15 1   
    31    14    20 1   
    32    15    16 1   
    33    15    19 1   
    34    15    48 1   
    35    16    17 1   
    36    16    49 1   
    37    16    50 1   
    38    17    18 1   
    39    17    51 1   
    40    17    52 1   
    41    18    19 1   
    42    18    20 1   
    43    18    53 1   
    44    19    54 1   
    45    19    55 1   
    46    20    21 1   
    47    20    56 1   
    48    21    22 2   
    49    21    23 1   
    50    23    24 1   
    51    23    57 1   
    52    24    25 ar  
    53    24    29 ar  
    54    25    26 ar  
    55    26    27 ar  
    56    26    58 1   
    57    27    28 ar  
    58    27    59 1   
    59    28    29 ar  
    60    29    30 1   
    61    30    31 1   
    62    31    60 1   
    63    31    61 1   
    64    31    62 1   
@<TRIPOS>SUBSTRUCTURE
     1 E8J         1 TEMP              0 ****  ****    0 ROOT
