@<TRIPOS>MOLECULE
E8K
   58    61     1     0     0
SMALL
abcg2


@<TRIPOS>ATOM
      1 O3          -6.2550     1.5320    -1.9110 o          1 E8K      -0.531000
      2 S           -6.4430     1.3700    -0.4780 sy         1 E8K       1.146600
      3 O2          -7.4370     2.1680     0.2190 o          1 E8K      -0.531000
      4 C7          -6.7800    -0.3430    -0.1630 ca         1 E8K      -0.310500
      5 C12         -6.4220    -1.2980    -1.1050 ca         1 E8K      -0.017500
      6 C11         -6.6510    -2.6370    -0.8250 ca         1 E8K      -0.130000
      7 C10         -7.2300    -3.0080     0.3810 ca         1 E8K      -0.057000
      8 C9          -7.5850    -2.0420     1.3150 ca         1 E8K      -0.130000
      9 C8          -7.3610    -0.7000     1.0480 ca         1 E8K      -0.017500
     10 N1          -5.0010     1.7050     0.2420 n7         1 E8K      -0.863300
     11 C6          -3.8130     0.9680    -0.1810 c3         1 E8K       0.194800
     12 C5          -2.5850     1.6200     0.4430 c3         1 E8K       0.167800
     13 N           -1.3850     0.8590     0.1620 n3         1 E8K      -0.725600
     14 C4          -1.2330    -0.2680     1.0670 c6         1 E8K       0.169800
     15 C3          -0.0380    -1.1270     0.6890 c6         1 E8K      -0.071900
     16 C13         -0.1970     1.6970     0.1680 c6         1 E8K       0.169800
     17 C14          1.0390     0.9110    -0.2400 c6         1 E8K      -0.071900
     18 C2           1.2440    -0.2990     0.6660 c6         1 E8K      -0.068700
     19 C1           2.4070    -1.1710     0.2400 c3         1 E8K       0.173600
     20 O1           3.6060    -0.3980     0.3310 os         1 E8K      -0.459100
     21 C            4.7490    -0.9580    -0.0570 c          1 E8K       0.642300
     22 O            4.8250    -2.0920    -0.4780 o          1 E8K      -0.500000
     23 C15          5.8790    -0.0600     0.0890 cc         1 E8K      -0.220400
     24 C22          7.2550    -0.3530    -0.2060 ca         1 E8K      -0.049800
     25 C17          7.9820     0.8150     0.0980 ca         1 E8K      -0.066200
     26 N2           7.0860     1.7540     0.5460 na         1 E8K      -0.212700
     27 C16          5.8410     1.2400     0.5430 cd         1 E8K      -0.083100
     28 C21          7.9460    -1.4710    -0.6860 ca         1 E8K      -0.054000
     29 C20          9.3170    -1.3880    -0.8430 ca         1 E8K      -0.133000
     30 C19         10.0190    -0.2130    -0.5320 ca         1 E8K      -0.093000
     31 C18          9.3620     0.9060    -0.0580 ca         1 E8K      -0.124000
     32 H1          -5.9770    -1.0090    -2.0480 ha         1 E8K       0.135500
     33 H2          -6.3800    -3.3900    -1.5530 ha         1 E8K       0.120000
     34 H3          -7.4090    -4.0530     0.5950 ha         1 E8K       0.117000
     35 H4          -8.0400    -2.3320     2.2510 ha         1 E8K       0.120000
     36 H5          -7.6420     0.0500     1.7750 ha         1 E8K       0.135500
     37 H6          -5.1010     1.7600     1.2510 hn         1 E8K       0.474000
     38 H7          -3.8810    -0.0900     0.0950 h1         1 E8K       0.060200
     39 H8          -3.7310     1.0210    -1.2660 h1         1 E8K       0.060200
     40 H9          -2.4790     2.6210     0.0200 h1         1 E8K       0.041200
     41 H10         -2.7410     1.7550     1.5270 h1         1 E8K       0.041200
     42 H12         -1.1200     0.0760     2.1110 h1         1 E8K       0.031200
     43 H13         -2.1360    -0.8800     1.0390 h1         1 E8K       0.031200
     44 H14          0.0490    -1.9500     1.4040 hc         1 E8K       0.052450
     45 H15         -0.2120    -1.5730    -0.2950 hc         1 E8K       0.052450
     46 H16         -0.3490     2.5210    -0.5310 h1         1 E8K       0.031200
     47 H17         -0.0250     2.1490     1.1610 h1         1 E8K       0.031200
     48 H18          0.9280     0.5740    -1.2770 hc         1 E8K       0.052450
     49 H19          1.9050     1.5750    -0.2080 hc         1 E8K       0.052450
     50 H20          1.4330     0.0560     1.6870 hc         1 E8K       0.055700
     51 H21          2.4820    -2.0470     0.8920 h1         1 E8K       0.050700
     52 H22          2.2630    -1.5250    -0.7850 h1         1 E8K       0.050700
     53 H23          7.3190     2.6900     0.8370 hn         1 E8K       0.353000
     54 H24          5.0010     1.8340     0.8660 h4         1 E8K       0.225000
     55 H25          7.4210    -2.3830    -0.9340 ha         1 E8K       0.138000
     56 H26          9.8620    -2.2460    -1.2130 ha         1 E8K       0.114000
     57 H27         11.0920    -0.1830    -0.6650 ha         1 E8K       0.112000
     58 H28          9.8980     1.8140     0.1860 ha         1 E8K       0.114000
@<TRIPOS>BOND
     1     1     2 2   
     2     2     3 2   
     3     2     4 1   
     4     2    10 1   
     5     4     5 ar  
     6     4     9 ar  
     7     5     6 ar  
     8     5    32 1   
     9     6     7 ar  
    10     6    33 1   
    11     7     8 ar  
    12     7    34 1   
    13     8     9 ar  
    14     8    35 1   
    15     9    36 1   
    16    10    11 1   
    17    10    37 1   
    18    11    12 1   
    19    11    38 1   
    20    11    39 1   
    21    12    13 1   
    22    12    40 1   
    23    12    41 1   
    24    13    14 1   
    25    13    16 1   
    26    14    15 1   
    27    14    42 1   
    28    14    43 1   
    29    15    18 1   
    30    15    44 1   
    31    15    45 1   
    32    16    17 1   
    33    16    46 1   
    34    16    47 1   
    35    17    18 1   
    36    17    48 1   
    37    17    49 1   
    38    18    19 1   
    39    18    50 1   
    40    19    20 1   
    41    19    51 1   
    42    19    52 1   
    43    20    21 1   
    44    21    22 2   
    45    21    23 1   
    46    23    24 1   
    47    23    27 2   
    48    24    25 ar  
    49    24    28 ar  
    50    25    26 1   
    51    25    31 ar  
    52    26    27 1   
    53    26    53 1   
    54    27    54 1   
    55    28    29 ar  
    56    28    55 1   
    57    29    30 ar  
    58    29    56 1   
    59    30    31 ar  
    60    30    57 1   
    61    31    58 1   
@<TRIPOS>SUBSTRUCTURE
     1 E8K         1 TEMP              0 ****  ****    0 ROOT
