@<TRIPOS>MOLECULE
E8K
   58    61     1     0     0
SMALL
No Charge or Current Charge


@<TRIPOS>ATOM
      1 O3          -7.7160     2.0340    -0.2270 o          1 E8K      -0.531000
      2 S           -6.7920     1.2100     0.5560 sy         1 E8K       1.146600
      3 O2          -6.8480     1.1270     2.0170 o          1 E8K      -0.531000
      4 C7          -6.7270    -0.4410    -0.1630 ca         1 E8K      -0.310500
      5 C12         -6.8700    -0.6060    -1.5560 ca         1 E8K      -0.017500
      6 C11         -6.8090    -1.8910    -2.1220 ca         1 E8K      -0.130000
      7 C10         -6.6040    -3.0150    -1.3030 ca         1 E8K      -0.057000
      8 C9          -6.4600    -2.8530     0.0850 ca         1 E8K      -0.130000
      9 C8          -6.5200    -1.5710     0.6580 ca         1 E8K      -0.017500
     10 N1          -5.2720     1.7970     0.1970 n7         1 E8K      -0.863300
     11 C6          -4.1140     0.8970     0.3990 c3         1 E8K       0.194800
     12 C5          -2.7720     1.6350     0.1350 c3         1 E8K       0.167800
     13 N           -1.5460     0.7900     0.2020 n3         1 E8K      -0.725600
     14 C4          -1.3040     0.1950     1.5490 c6         1 E8K       0.169800
     15 C3          -0.0830    -0.7560     1.5430 c6         1 E8K      -0.071900
     16 C13         -0.3440     1.5250    -0.2820 c6         1 E8K       0.169800
     17 C14          0.9030     0.6110    -0.3420 c6         1 E8K      -0.071900
     18 C2           1.1940    -0.0340     1.0390 c6         1 E8K      -0.068700
     19 C1           2.4130    -0.9980     1.0020 c3         1 E8K       0.173600
     20 O1           3.5900    -0.2530     0.6400 os         1 E8K      -0.459100
     21 C            4.7790    -0.9280     0.5430 c          1 E8K       0.642300
     22 O            4.8850    -2.1290     0.7530 o          1 E8K      -0.500000
     23 C15          5.9150    -0.0570     0.1590 cc         1 E8K      -0.220400
     24 C22          7.2930    -0.4220    -0.0350 ca         1 E8K      -0.049800
     25 C17          7.9620     0.7210    -0.3830 ca         1 E8K      -0.066200
     26 N2           7.1030     1.8080    -0.4270 na         1 E8K      -0.212700
     27 C16          5.8210     1.3120    -0.0870 cd         1 E8K      -0.083100
     28 C21          7.9500    -1.6580     0.0770 ca         1 E8K      -0.054000
     29 C20          9.3370    -1.6950    -0.1810 ca         1 E8K      -0.133000
     30 C19         10.0290    -0.5150    -0.5410 ca         1 E8K      -0.093000
     31 C18          9.3390     0.7120    -0.6440 ca         1 E8K      -0.124000
     32 H1          -7.0230     0.2590    -2.2020 ha         1 E8K       0.135500
     33 H2          -6.9190    -2.0150    -3.1970 ha         1 E8K       0.120000
     34 H3          -6.5570    -4.0080    -1.7440 ha         1 E8K       0.117000
     35 H4          -6.3000    -3.7230     0.7180 ha         1 E8K       0.120000
     36 H5          -6.4040    -1.4620     1.7360 ha         1 E8K       0.135500
     37 H6          -5.2150     2.5710     0.8570 hn         1 E8K       0.474000
     38 H7          -4.1110     0.5020     1.4230 h1         1 E8K       0.060200
     39 H8          -4.1630     0.0400    -0.2870 h1         1 E8K       0.060200
     40 H9          -2.8420     2.0820    -0.8660 h1         1 E8K       0.041200
     41 H10         -2.6870     2.4670     0.8480 h1         1 E8K       0.041200
     42 H12         -1.1380     0.9900     2.2910 h1         1 E8K       0.031200
     43 H13         -2.1780    -0.3820     1.8830 h1         1 E8K       0.031200
     44 H14          0.0790    -1.1480     2.5560 hc         1 E8K       0.052450
     45 H15         -0.3020    -1.6220     0.9030 hc         1 E8K       0.052450
     46 H16         -0.5270     1.9310    -1.2870 h1         1 E8K       0.031200
     47 H17         -0.1310     2.3790     0.3780 h1         1 E8K       0.031200
     48 H18          0.7440    -0.1720    -1.0970 hc         1 E8K       0.052450
     49 H19          1.7670     1.2000    -0.6790 hc         1 E8K       0.052450
     50 H20          1.4480     0.7610     1.7550 hc         1 E8K       0.055700
     51 H21          2.5380    -1.4550     1.9930 h1         1 E8K       0.050700
     52 H22          2.2180    -1.7980     0.2750 h1         1 E8K       0.050700
     53 H23          7.3430     2.7680    -0.6580 hn         1 E8K       0.353000
     54 H24          4.9460     1.9580    -0.0440 h4         1 E8K       0.225000
     55 H25          7.4140    -2.5620     0.3540 ha         1 E8K       0.138000
     56 H26          9.8760    -2.6360    -0.1030 ha         1 E8K       0.114000
     57 H27         11.0980    -0.5520    -0.7380 ha         1 E8K       0.112000
     58 H28          9.8640     1.6240    -0.9200 ha         1 E8K       0.114000
@<TRIPOS>BOND
     1     1     2 2   
     2     2     3 2   
     3     2     4 1   
     4     2    10 1   
     5     4     5 ar  
     6     4     9 ar  
     7     5     6 ar  
     8     5    32 1   
     9     6     7 ar  
    10     6    33 1   
    11     7     8 ar  
    12     7    34 1   
    13     8     9 ar  
    14     8    35 1   
    15     9    36 1   
    16    10    11 1   
    17    10    37 1   
    18    11    12 1   
    19    11    38 1   
    20    11    39 1   
    21    12    13 1   
    22    12    40 1   
    23    12    41 1   
    24    13    14 1   
    25    13    16 1   
    26    14    15 1   
    27    14    42 1   
    28    14    43 1   
    29    15    18 1   
    30    15    44 1   
    31    15    45 1   
    32    16    17 1   
    33    16    46 1   
    34    16    47 1   
    35    17    18 1   
    36    17    48 1   
    37    17    49 1   
    38    18    19 1   
    39    18    50 1   
    40    19    20 1   
    41    19    51 1   
    42    19    52 1   
    43    20    21 1   
    44    21    22 2   
    45    21    23 1   
    46    23    24 1   
    47    23    27 2   
    48    24    25 ar  
    49    24    28 ar  
    50    25    26 1   
    51    25    31 ar  
    52    26    27 1   
    53    26    53 1   
    54    27    54 1   
    55    28    29 ar  
    56    28    55 1   
    57    29    30 ar  
    58    29    56 1   
    59    30    31 ar  
    60    30    57 1   
    61    31    58 1   
@<TRIPOS>SUBSTRUCTURE
     1 E8K         1 TEMP              0 ****  ****    0 ROOT
