@<TRIPOS>MOLECULE
E8L
   51    52     1     0     0
SMALL
bcc


@<TRIPOS>ATOM
      1 CAA         -0.0070   -20.1310    -2.9580 ca         1 E8L      -0.129300
      2 CAB          1.0290   -19.3430    -3.4900 ca         1 E8L       0.164100
      3 CAC          2.1320   -19.0030    -2.7140 ca         1 E8L      -0.243000
      4 CAD          2.2560   -19.4720    -1.4070 ca         1 E8L       0.210600
      5 CAE          1.2540   -20.2660    -0.8740 ca         1 E8L      -0.185000
      6 CAF          0.1410   -20.5670    -1.6490 ca         1 E8L      -0.092000
      7 CAG         -1.2570   -20.5020    -3.7290 c3         1 E8L       0.008600
      8 CAH         -2.1310   -19.2900    -4.0570 c3         1 E8L      -0.081600
      9 CAI         -0.9830   -21.3520    -4.9710 c3         1 E8L      -0.081600
     10 CAK          1.9620   -18.2920    -5.4210 c3         1 E8L       0.137400
     11 CAL          1.5890   -18.1070    -6.8690 c3         1 E8L       0.133400
     12 CAO          3.0880   -18.2420     0.5330 c3         1 E8L       0.244800
     13 CAP          4.6510   -19.2130    -1.0960 ca         1 E8L       0.633200
     14 CAQ          2.8110   -16.7950     0.1550 c3         1 E8L      -0.116100
     15 CAR          4.9780   -20.1350    -2.1100 ca         1 E8L      -0.320300
     16 CAS          6.2870   -20.2220    -2.5220 ca         1 E8L      -0.052000
     17 CAT          7.2760   -19.4210    -1.9440 ca         1 E8L      -0.272900
     18 CAU          6.8450   -18.5650    -0.9450 ca         1 E8L       0.439200
     19 CAW          8.7280   -19.4880    -2.3770 c          1 E8L       0.932200
     20 CAZ          1.1130   -19.2650    -8.8410 c3         1 E8L       0.123700
     21 NAN          3.3660   -19.0960    -0.6170 nh         1 E8L      -0.692700
     22 NAV          5.5860   -18.4540    -0.5300 nb         1 E8L      -0.770000
     23 OAJ          0.8810   -18.9230    -4.7610 os         1 E8L      -0.323900
     24 OAM          1.4600   -19.3610    -7.4840 os         1 E8L      -0.391600
     25 OAX          9.5120   -18.6910    -1.8240 o          1 E8L      -0.826800
     26 OAY          9.0090   -20.3360    -3.2470 o          1 E8L      -0.826800
     27 H1           2.9100   -18.3630    -3.1080 ha         1 E8L       0.151000
     28 H2           1.3350   -20.6490     0.1350 ha         1 E8L       0.137000
     29 H3          -0.6410   -21.1840    -1.2200 ha         1 E8L       0.120000
     30 H4          -1.8410   -21.1300    -3.0480 hc         1 E8L       0.029700
     31 H5          -2.3570   -18.7120    -3.1590 hc         1 E8L       0.033033
     32 H6          -1.6570   -18.6240    -4.7770 hc         1 E8L       0.033033
     33 H7          -3.0790   -19.6180    -4.4860 hc         1 E8L       0.033033
     34 H8          -0.3820   -22.2270    -4.7240 hc         1 E8L       0.033033
     35 H9          -1.9260   -21.7080    -5.3900 hc         1 E8L       0.033033
     36 H10         -0.4650   -20.7950    -5.7490 hc         1 E8L       0.033033
     37 H11          2.8730   -18.8960    -5.3410 h1         1 E8L       0.052200
     38 H12          2.1730   -17.3100    -4.9840 h1         1 E8L       0.052200
     39 H13          2.3780   -17.5080    -7.3440 h1         1 E8L       0.028700
     40 H14          0.6590   -17.5260    -6.9470 h1         1 E8L       0.028700
     41 H15          2.2280   -18.6600     1.0570 h1         1 E8L       0.049700
     42 H16          3.9320   -18.3010     1.2160 h1         1 E8L       0.049700
     43 H17          2.5940   -16.2080     1.0480 hc         1 E8L       0.035700
     44 H18          3.6700   -16.3500    -0.3440 hc         1 E8L       0.035700
     45 H19          1.9500   -16.7180    -0.5100 hc         1 E8L       0.035700
     46 H20          4.2240   -20.7720    -2.5500 ha         1 E8L       0.125000
     47 H21          6.5550   -20.9290    -3.2960 ha         1 E8L       0.147000
     48 H22          7.5590   -17.9210    -0.4440 h4         1 E8L       0.030100
     49 H23          1.0440   -20.2750    -9.2420 h1         1 E8L       0.024700
     50 H24          0.1450   -18.7690    -8.9840 h1         1 E8L       0.024700
     51 H25          1.8620   -18.7120    -9.4200 h1         1 E8L       0.024700
@<TRIPOS>BOND
     1     1     2 ar  
     2     1     6 ar  
     3     1     7 1   
     4     2     3 ar  
     5     2    23 1   
     6     3     4 ar  
     7     3    27 1   
     8     4     5 ar  
     9     4    21 1   
    10     5     6 ar  
    11     5    28 1   
    12     6    29 1   
    13     7     8 1   
    14     7     9 1   
    15     7    30 1   
    16     8    31 1   
    17     8    32 1   
    18     8    33 1   
    19     9    34 1   
    20     9    35 1   
    21     9    36 1   
    22    10    11 1   
    23    10    23 1   
    24    10    37 1   
    25    10    38 1   
    26    11    24 1   
    27    11    39 1   
    28    11    40 1   
    29    12    14 1   
    30    12    21 1   
    31    12    41 1   
    32    12    42 1   
    33    13    15 ar  
    34    13    21 1   
    35    13    22 ar  
    36    14    43 1   
    37    14    44 1   
    38    14    45 1   
    39    15    16 ar  
    40    15    46 1   
    41    16    17 ar  
    42    16    47 1   
    43    17    18 ar  
    44    17    19 1   
    45    18    22 ar  
    46    18    48 1   
    47    19    25 1   
    48    19    26 1   
    49    20    24 1   
    50    20    49 1   
    51    20    50 1   
    52    20    51 1   
@<TRIPOS>SUBSTRUCTURE
     1 E8L         1 TEMP              0 ****  ****    0 ROOT
