@<TRIPOS>MOLECULE
E8L
   51    52     1     0     0
SMALL
No Charge or Current Charge


@<TRIPOS>ATOM
      1 CAA         -0.0290   -19.9900    -2.9170 ca         1 E8L      -0.129300
      2 CAB          1.0660   -19.3090    -3.5080 ca         1 E8L       0.164100
      3 CAC          2.1960   -18.9840    -2.7270 ca         1 E8L      -0.225000
      4 CAD          2.2590   -19.3290    -1.3680 ca         1 E8L       0.349000
      5 CAE          1.1710   -20.0020    -0.7870 ca         1 E8L      -0.167000
      6 CAF          0.0410   -20.3300    -1.5510 ca         1 E8L      -0.074000
      7 CAG         -1.2940   -20.3800    -3.7030 c3         1 E8L       0.008600
      8 CAH         -2.0790   -19.1490    -4.2120 c3         1 E8L      -0.081600
      9 CAI         -1.0040   -21.3980    -4.8300 c3         1 E8L      -0.081600
     10 CAK          2.0820   -18.3150    -5.5420 c3         1 E8L       0.160600
     11 CAL          1.6650   -18.1140    -7.0160 c3         1 E8L       0.156600
     12 CAO          3.2170   -18.4040     0.7510 c3         1 E8L       0.244800
     13 CAP          4.6890   -19.1690    -1.1360 ca         1 E8L       0.567900
     14 CAQ          2.4380   -17.0750     0.7510 c3         1 E8L      -0.116100
     15 CAR          4.9970   -20.2580    -1.9690 ca         1 E8L      -0.237000
     16 CAS          6.2930   -20.3860    -2.4900 ca         1 E8L      -0.034000
     17 CAT          7.2460   -19.4040    -2.1550 ca         1 E8L      -0.207600
     18 CAU          6.8450   -18.3510    -1.3150 ca         1 E8L       0.373900
     19 CAW          8.6570   -19.4590    -2.6650 c          1 E8L       0.721600
     20 CAZ          1.2540   -19.3460    -9.0590 c3         1 E8L       0.146900
     21 NAN          3.4000   -18.9890    -0.6050 nh         1 E8L      -0.831100
     22 NAV          5.5940   -18.2300    -0.8140 nb         1 E8L      -0.770000
     23 OAJ          1.0030   -18.9720    -4.8460 os         1 E8L      -0.347100
     24 OAM          1.6520   -19.3940    -7.6800 os         1 E8L      -0.438000
     25 OAX          9.4320   -18.5740    -2.3370 o          1 E8L      -0.721500
     26 OAY          8.9760   -20.3890    -3.3900 o          1 E8L      -0.721500
     27 H1           3.0340   -18.4500    -3.1590 ha         1 E8L       0.133000
     28 H2           1.1990   -20.2890     0.2590 ha         1 E8L       0.119000
     29 H3          -0.7830   -20.8550    -1.0730 ha         1 E8L       0.102000
     30 H4          -1.9750   -20.8950    -3.0140 hc         1 E8L       0.029700
     31 H5          -2.2780   -18.4540    -3.3880 hc         1 E8L       0.033033
     32 H6          -1.5290   -18.6100    -4.9910 hc         1 E8L       0.033033
     33 H7          -3.0430   -19.4580    -4.6340 hc         1 E8L       0.033033
     34 H8          -0.4550   -22.2620    -4.4340 hc         1 E8L       0.033033
     35 H9          -1.9410   -21.7640    -5.2660 hc         1 E8L       0.033033
     36 H10         -0.4090   -20.9540    -5.6360 hc         1 E8L       0.033033
     37 H11          3.0020   -18.9130    -5.5010 h1         1 E8L       0.052200
     38 H12          2.2840   -17.3330    -5.0950 h1         1 E8L       0.052200
     39 H13          2.3850   -17.4420    -7.5010 h1         1 E8L       0.028700
     40 H14          0.6750   -17.6400    -7.0550 h1         1 E8L       0.028700
     41 H15          2.6950   -19.1210     1.3980 h1         1 E8L       0.049700
     42 H16          4.1840   -18.2300     1.2420 h1         1 E8L       0.049700
     43 H17          2.3560   -16.6850     1.7720 hc         1 E8L       0.035700
     44 H18          2.9530   -16.3270     0.1370 hc         1 E8L       0.035700
     45 H19          1.4250   -17.2130     0.3560 hc         1 E8L       0.035700
     46 H20          4.2430   -21.0020    -2.2050 ha         1 E8L       0.107000
     47 H21          6.5460   -21.2260    -3.1350 ha         1 E8L       0.129000
     48 H22          7.5420   -17.5640    -1.0230 h4         1 E8L       0.030100
     49 H23          1.2690   -20.3520    -9.4950 h1         1 E8L       0.024700
     50 H24          0.2370   -18.9450    -9.1570 h1         1 E8L       0.024700
     51 H25          1.9370   -18.7110    -9.6390 h1         1 E8L       0.024700
@<TRIPOS>BOND
     1     1     2 ar  
     2     1     6 ar  
     3     1     7 1   
     4     2     3 ar  
     5     2    23 1   
     6     3     4 ar  
     7     3    27 1   
     8     4     5 ar  
     9     4    21 1   
    10     5     6 ar  
    11     5    28 1   
    12     6    29 1   
    13     7     8 1   
    14     7     9 1   
    15     7    30 1   
    16     8    31 1   
    17     8    32 1   
    18     8    33 1   
    19     9    34 1   
    20     9    35 1   
    21     9    36 1   
    22    10    11 1   
    23    10    23 1   
    24    10    37 1   
    25    10    38 1   
    26    11    24 1   
    27    11    39 1   
    28    11    40 1   
    29    12    14 1   
    30    12    21 1   
    31    12    41 1   
    32    12    42 1   
    33    13    15 ar  
    34    13    21 1   
    35    13    22 ar  
    36    14    43 1   
    37    14    44 1   
    38    14    45 1   
    39    15    16 ar  
    40    15    46 1   
    41    16    17 ar  
    42    16    47 1   
    43    17    18 ar  
    44    17    19 1   
    45    18    22 ar  
    46    18    48 1   
    47    19    25 1   
    48    19    26 1   
    49    20    24 1   
    50    20    49 1   
    51    20    50 1   
    52    20    51 1   
@<TRIPOS>SUBSTRUCTURE
     1 E8L         1 TEMP              0 ****  ****    0 ROOT
