@<TRIPOS>MOLECULE
E8M
   54    55     1     0     0
SMALL
bcc


@<TRIPOS>ATOM
      1 C10         -4.4860     2.2750    -0.1030 c3         1 E8M       0.140500
      2 C13         -3.3210     1.5460     0.4730 cc         1 E8M       0.560300
      3 C20          0.8870     0.5100     0.7880 c3         1 E8M      -0.078400
      4 C26          3.3860     0.8410     0.6410 c3         1 E8M      -0.073400
      5 N05         -5.1910     1.4570    -1.0650 n3         1 E8M      -0.700600
      6 C06         -6.1810     2.2340    -1.7800 c3         1 E8M       0.148100
      7 N14         -3.1420     1.4170     1.7500 nd         1 E8M      -0.381300
      8 O15         -1.9840     0.6890     1.8450 os         1 E8M      -0.136100
      9 C16         -1.5850     0.4230     0.6100 cd         1 E8M       0.532700
     10 N17         -2.3570     0.9460    -0.2820 nc         1 E8M      -0.685000
     11 C18         -0.3300    -0.3500     0.4050 c3         1 E8M      -0.080000
     12 C29          4.7450     0.3400     0.1530 c6         1 E8M      -0.058700
     13 C31          5.8750     1.1570     0.7820 c6         1 E8M      -0.071400
     14 C34          7.2530     0.6980     0.3170 c6         1 E8M      -0.072900
     15 C37          7.3580     0.7250    -1.2030 c6         1 E8M      -0.074400
     16 C40          6.2450    -0.1000    -1.8410 c6         1 E8M      -0.072900
     17 C43          4.8660     0.3560    -1.3710 c6         1 E8M      -0.071400
     18 C46         -0.3430    -1.6730     1.1770 c3         1 E8M      -0.161400
     19 C49         -1.5280    -2.5410     0.8150 c          1 E8M       0.667100
     20 O50         -2.6600    -2.1020     0.7130 o          1 E8M      -0.561100
     21 N51         -1.2160    -3.8390     0.6660 ns         1 E8M      -0.455400
     22 O53         -2.1580    -4.7230     0.2390 oh         1 E8M      -0.381100
     23 H1          -5.1230     2.6230     0.7260 h1         1 E8M       0.053700
     24 H2          -4.1140     3.1690    -0.6120 h1         1 E8M       0.053700
     25 H3           0.7380     1.5260     0.4130 hc         1 E8M       0.056200
     26 H4           0.9470     0.5870     1.8780 hc         1 E8M       0.056200
     27 H5           3.2320     1.8670     0.2840 hc         1 E8M       0.041200
     28 H6           3.4090     0.9030     1.7350 hc         1 E8M       0.041200
     29 H7          -6.5210     0.5050     0.3120 h1         1 E8M       0.034533
     30 H8          -6.2630    -0.3210    -1.2330 h1         1 E8M       0.034533
     31 H9          -5.0020    -0.3490    -0.0120 h1         1 E8M       0.034533
     32 H11         -5.7050     3.0750    -2.2860 h1         1 E8M       0.034533
     33 H12         -6.6550     1.6140    -2.5410 h1         1 E8M       0.034533
     34 H13         -6.9750     2.6350    -1.1320 h1         1 E8M       0.034533
     35 H14         -0.2830    -0.5600    -0.6670 hc         1 E8M       0.091700
     36 H15          2.3770    -1.0500     0.5690 hc         1 E8M       0.039700
     37 H16          2.1220    -0.0710    -0.8600 hc         1 E8M       0.039700
     38 H17          4.8610    -0.7010     0.4870 hc         1 E8M       0.042700
     39 H18          5.7390     2.2140     0.5190 hc         1 E8M       0.038450
     40 H19          5.8050     1.1000     1.8720 hc         1 E8M       0.038450
     41 H20          8.0280     1.3260     0.7630 hc         1 E8M       0.038450
     42 H21          7.4370    -0.3210     0.6760 hc         1 E8M       0.038450
     43 H22          7.2830     1.7620    -1.5500 hc         1 E8M       0.039200
     44 H23          8.3350     0.3580    -1.5260 hc         1 E8M       0.039200
     45 H24          6.3070    -0.0430    -2.9310 hc         1 E8M       0.038450
     46 H25          6.3820    -1.1550    -1.5790 hc         1 E8M       0.038450
     47 H26          4.1000    -0.2790    -1.8220 hc         1 E8M       0.038450
     48 H27          4.6750     1.3750    -1.7320 hc         1 E8M       0.038450
     49 H28          0.5960    -2.1990     1.0020 hc         1 E8M       0.072200
     50 H29         -0.3860    -1.4770     2.2520 hc         1 E8M       0.072200
     51 H30         -0.2620    -4.1600     0.5810 hn         1 E8M       0.334500
     52 H31         -2.4990    -5.1570     1.0320 ho         1 E8M       0.406000
     53 C23          2.2010    -0.0250     0.2290 c3         1 E8M      -0.074400
     54 C01         -5.7730     0.2770    -0.4640 c3         1 E8M       0.148100
@<TRIPOS>BOND
     1     1     2 1   
     2     1     5 1   
     3     1    23 1   
     4     1    24 1   
     5     2     7 2   
     6     2    10 1   
     7     3    11 1   
     8     3    25 1   
     9     3    26 1   
    10     3    53 1   
    11     4    12 1   
    12     4    27 1   
    13     4    28 1   
    14     4    53 1   
    15     5     6 1   
    16     5    54 1   
    17     6    32 1   
    18     6    33 1   
    19     6    34 1   
    20     7     8 1   
    21     8     9 1   
    22     9    10 2   
    23     9    11 1   
    24    11    18 1   
    25    11    35 1   
    26    12    13 1   
    27    12    17 1   
    28    12    38 1   
    29    13    14 1   
    30    13    39 1   
    31    13    40 1   
    32    14    15 1   
    33    14    41 1   
    34    14    42 1   
    35    15    16 1   
    36    15    43 1   
    37    15    44 1   
    38    16    17 1   
    39    16    45 1   
    40    16    46 1   
    41    17    47 1   
    42    17    48 1   
    43    18    19 1   
    44    18    49 1   
    45    18    50 1   
    46    19    20 2   
    47    19    21 1   
    48    21    22 1   
    49    21    51 1   
    50    22    52 1   
    51    29    54 1   
    52    30    54 1   
    53    31    54 1   
    54    36    53 1   
    55    37    53 1   
@<TRIPOS>SUBSTRUCTURE
     1 E8M         1 TEMP              0 ****  ****    0 ROOT
