@<TRIPOS>MOLECULE
E8M
   54    55     1     0     0
SMALL
No Charge or Current Charge


@<TRIPOS>ATOM
      1 C10         -4.5480     2.1580    -0.4290 c3         1 E8M       0.140500
      2 C13         -3.3570     1.5140     0.2820 cc         1 E8M       0.560300
      3 C20          0.9230     0.5790     0.6940 c3         1 E8M      -0.078400
      4 C26          3.4670     0.9760     0.5560 c3         1 E8M      -0.073400
      5 N05         -5.6810     1.2510    -0.8190 n3         1 E8M      -0.700600
      6 C06         -6.6970     1.9400    -1.6470 c3         1 E8M       0.148100
      7 N14         -3.1850     1.5760     1.5940 nd         1 E8M      -0.381300
      8 O15         -1.9800     0.8630     1.7770 os         1 E8M      -0.091700
      9 C16         -1.5900     0.4610     0.5340 cd         1 E8M       0.488300
     10 N17         -2.3940     0.8510    -0.4290 nc         1 E8M      -0.685000
     11 C18         -0.3010    -0.3100     0.3300 c3         1 E8M      -0.080000
     12 C29          4.8950     0.4110     0.2800 c6         1 E8M      -0.058700
     13 C31          5.9830     1.4240     0.7390 c6         1 E8M      -0.071400
     14 C34          7.4120     0.8840     0.4900 c6         1 E8M      -0.072900
     15 C37          7.6170     0.5090    -0.9970 c6         1 E8M      -0.074400
     16 C40          6.5460    -0.5060    -1.4640 c6         1 E8M      -0.072900
     17 C43          5.1140     0.0280    -1.2140 c6         1 E8M      -0.071400
     18 C46         -0.3040    -1.6760     1.0860 c3         1 E8M      -0.161400
     19 C49         -1.5140    -2.5500     0.7200 c          1 E8M       0.600100
     20 O50         -2.6300    -2.3490     1.1800 o          1 E8M      -0.561100
     21 N51         -1.2370    -3.6140    -0.1300 ns         1 E8M      -0.388400
     22 O53         -2.3050    -4.3720    -0.7480 oh         1 E8M      -0.420100
     23 H1          -4.9260     2.9610     0.2170 h1         1 E8M       0.053700
     24 H2          -4.1520     2.6500    -1.3280 h1         1 E8M       0.053700
     25 H3           0.8040     1.5510     0.1970 hc         1 E8M       0.056200
     26 H4           0.9190     0.7800     1.7730 hc         1 E8M       0.056200
     27 H5           3.3080     1.8830    -0.0410 hc         1 E8M       0.041200
     28 H6           3.4070     1.2920     1.6060 hc         1 E8M       0.041200
     29 H7          -6.7200     1.2430     1.0480 h1         1 E8M       0.034533
     30 H8          -7.0760    -0.1440    -0.0070 h1         1 E8M       0.034533
     31 H9          -5.5310    -0.0680     0.8560 h1         1 E8M       0.034533
     32 H11         -6.2350     2.3870    -2.5370 h1         1 E8M       0.034533
     33 H12         -7.4660     1.2330    -1.9860 h1         1 E8M       0.034533
     34 H13         -7.1910     2.7390    -1.0770 h1         1 E8M       0.034533
     35 H14         -0.2260    -0.5350    -0.7420 hc         1 E8M       0.091700
     36 H15          2.4880    -0.9300     0.8440 hc         1 E8M       0.039700
     37 H16          2.2720    -0.2620    -0.7760 hc         1 E8M       0.039700
     38 H17          4.9930    -0.4980     0.8910 hc         1 E8M       0.042700
     39 H18          5.8540     2.3770     0.2060 hc         1 E8M       0.038450
     40 H19          5.8600     1.6480     1.8080 hc         1 E8M       0.038450
     41 H20          8.1530     1.6380     0.7890 hc         1 E8M       0.038450
     42 H21          7.5910     0.0030     1.1230 hc         1 E8M       0.038450
     43 H22          7.5660     1.4140    -1.6180 hc         1 E8M       0.039200
     44 H23          8.6200     0.0860    -1.1410 hc         1 E8M       0.039200
     45 H24          6.6810    -0.7230    -2.5320 hc         1 E8M       0.038450
     46 H25          6.6830    -1.4580    -0.9330 hc         1 E8M       0.038450
     47 H26          4.3940    -0.7410    -1.5220 hc         1 E8M       0.038450
     48 H27          4.9300     0.9030    -1.8540 hc         1 E8M       0.038450
     49 H28          0.6120    -2.2200     0.8310 hc         1 E8M       0.072200
     50 H29         -0.3310    -1.4810     2.1650 hc         1 E8M       0.072200
     51 H30         -0.3280    -3.6620    -0.5890 hn         1 E8M       0.334500
     52 H31         -2.0580    -5.3110    -0.5680 ho         1 E8M       0.445000
     53 C23          2.2990    -0.0040     0.2890 c3         1 E8M      -0.074400
     54 C01         -6.2820     0.5350     0.3310 c3         1 E8M       0.148100
@<TRIPOS>BOND
     1     1     2 1   
     2     1     5 1   
     3     1    23 1   
     4     1    24 1   
     5     2     7 2   
     6     2    10 1   
     7     3    11 1   
     8     3    25 1   
     9     3    26 1   
    10     3    53 1   
    11     4    12 1   
    12     4    27 1   
    13     4    28 1   
    14     4    53 1   
    15     5     6 1   
    16     5    54 1   
    17     6    32 1   
    18     6    33 1   
    19     6    34 1   
    20     7     8 1   
    21     8     9 1   
    22     9    10 2   
    23     9    11 1   
    24    11    18 1   
    25    11    35 1   
    26    12    13 1   
    27    12    17 1   
    28    12    38 1   
    29    13    14 1   
    30    13    39 1   
    31    13    40 1   
    32    14    15 1   
    33    14    41 1   
    34    14    42 1   
    35    15    16 1   
    36    15    43 1   
    37    15    44 1   
    38    16    17 1   
    39    16    45 1   
    40    16    46 1   
    41    17    47 1   
    42    17    48 1   
    43    18    19 1   
    44    18    49 1   
    45    18    50 1   
    46    19    20 2   
    47    19    21 1   
    48    21    22 1   
    49    21    51 1   
    50    22    52 1   
    51    29    54 1   
    52    30    54 1   
    53    31    54 1   
    54    36    53 1   
    55    37    53 1   
@<TRIPOS>SUBSTRUCTURE
     1 E8M         1 TEMP              0 ****  ****    0 ROOT
