@<TRIPOS>MOLECULE
E8N
   27    27     1     0     0
SMALL
bcc


@<TRIPOS>ATOM
      1 CAC          1.9220     1.0290    -0.0390 c6         1 E8N      -0.071900
      2 CAB         -0.6890     0.3540    -1.6260 c3         1 E8N      -0.080100
      3 CAA         -2.9980    -0.4830     0.2590 c3         1 E8N      -0.087100
      4 CAD         -1.8660     0.4830     0.5860 c3         1 E8N      -0.069400
      5 CAF          0.4800     1.2770     0.3960 c6         1 E8N      -0.065900
      6 CAE          2.3850    -0.3670     0.3590 c6         1 E8N      -0.073400
      7 CAH          1.4400    -1.4320    -0.1840 c6         1 E8N      -0.071900
      8 CAG          0.0010    -1.1760     0.2580 c6         1 E8N      -0.065900
      9 CAI         -0.5190     0.2220    -0.1110 c6         1 E8N      -0.041000
     10 H1           2.0180     1.1510    -1.1230 hc         1 E8N       0.037200
     11 H2           2.5720     1.7870     0.4070 hc         1 E8N       0.037200
     12 H3          -1.1090     1.3300    -1.8830 hc         1 E8N       0.031700
     13 H4           0.2570     0.2580    -2.1600 hc         1 E8N       0.031700
     14 H5          -1.3570    -0.4110    -2.0260 hc         1 E8N       0.031700
     15 H6          -3.9090    -0.1890     0.7840 hc         1 E8N       0.031033
     16 H7          -3.2320    -0.5000    -0.8060 hc         1 E8N       0.031033
     17 H8          -2.7670    -1.5040     0.5640 hc         1 E8N       0.031033
     18 H9          -2.1890     1.5020     0.3410 hc         1 E8N       0.035700
     19 H10         -1.6990     0.4740     1.6690 hc         1 E8N       0.035700
     20 H11          0.4450     1.2900     1.4920 hc         1 E8N       0.037200
     21 H12          0.1540     2.2700     0.0700 hc         1 E8N       0.037200
     22 H13          3.4050    -0.5460     0.0080 hc         1 E8N       0.036700
     23 H14          2.4160    -0.4390     1.4530 hc         1 E8N       0.036700
     24 H15          1.5000    -1.4530    -1.2770 hc         1 E8N       0.037200
     25 H16          1.7540    -2.4220     0.1540 hc         1 E8N       0.037200
     26 H17         -0.6530    -1.9440    -0.1660 hc         1 E8N       0.037200
     27 H18         -0.0550    -1.2920     1.3480 hc         1 E8N       0.037200
@<TRIPOS>BOND
     1     1     5 1   
     2     1     6 1   
     3     1    10 1   
     4     1    11 1   
     5     2     9 1   
     6     2    12 1   
     7     2    13 1   
     8     2    14 1   
     9     3     4 1   
    10     3    15 1   
    11     3    16 1   
    12     3    17 1   
    13     4     9 1   
    14     4    18 1   
    15     4    19 1   
    16     5     9 1   
    17     5    20 1   
    18     5    21 1   
    19     6     7 1   
    20     6    22 1   
    21     6    23 1   
    22     7     8 1   
    23     7    24 1   
    24     7    25 1   
    25     8     9 1   
    26     8    26 1   
    27     8    27 1   
@<TRIPOS>SUBSTRUCTURE
     1 E8N         1 TEMP              0 ****  ****    0 ROOT
