@<TRIPOS>MOLECULE
E8N
   27    27     1     0     0
SMALL
No Charge or Current Charge


@<TRIPOS>ATOM
      1 CAC          1.9560     1.0480    -0.0410 c6         1 E8N      -0.071900
      2 CAB         -0.7050     0.3460    -1.6460 c3         1 E8N      -0.080100
      3 CAA         -3.0730    -0.4710     0.2410 c3         1 E8N      -0.087100
      4 CAD         -1.9080     0.4890     0.5850 c3         1 E8N      -0.069400
      5 CAF          0.4960     1.2950     0.4220 c6         1 E8N      -0.065900
      6 CAE          2.4360    -0.3680     0.3540 c6         1 E8N      -0.073400
      7 CAH          1.4750    -1.4550    -0.1820 c6         1 E8N      -0.071900
      8 CAG          0.0180    -1.2010     0.2900 c6         1 E8N      -0.065900
      9 CAI         -0.5170     0.2190    -0.0960 c6         1 E8N      -0.041000
     10 H1           2.0450     1.1860    -1.1260 hc         1 E8N       0.037200
     11 H2           2.6170     1.7990     0.4140 hc         1 E8N       0.037200
     12 H3          -1.1530     1.3100    -1.9150 hc         1 E8N       0.031700
     13 H4           0.2420     0.2690    -2.1910 hc         1 E8N       0.031700
     14 H5          -1.3540    -0.4430    -2.0420 hc         1 E8N       0.031700
     15 H6          -3.9710    -0.1830     0.7990 hc         1 E8N       0.031033
     16 H7          -3.3210    -0.4360    -0.8260 hc         1 E8N       0.031033
     17 H8          -2.8310    -1.5050     0.5120 hc         1 E8N       0.031033
     18 H9          -2.2380     1.5080     0.3460 hc         1 E8N       0.035700
     19 H10         -1.7860     0.4720     1.6750 hc         1 E8N       0.035700
     20 H11          0.4800     1.3150     1.5210 hc         1 E8N       0.037200
     21 H12          0.1770     2.2970     0.1000 hc         1 E8N       0.037200
     22 H13          3.4490    -0.5410    -0.0330 hc         1 E8N       0.036700
     23 H14          2.5030    -0.4430     1.4480 hc         1 E8N       0.036700
     24 H15          1.5200    -1.4870    -1.2780 hc         1 E8N       0.037200
     25 H16          1.8070    -2.4430     0.1660 hc         1 E8N       0.037200
     26 H17         -0.6300    -1.9810    -0.1330 hc         1 E8N       0.037200
     27 H18         -0.0270    -1.3270     1.3810 hc         1 E8N       0.037200
@<TRIPOS>BOND
     1     1     5 1   
     2     1     6 1   
     3     1    10 1   
     4     1    11 1   
     5     2     9 1   
     6     2    12 1   
     7     2    13 1   
     8     2    14 1   
     9     3     4 1   
    10     3    15 1   
    11     3    16 1   
    12     3    17 1   
    13     4     9 1   
    14     4    18 1   
    15     4    19 1   
    16     5     9 1   
    17     5    20 1   
    18     5    21 1   
    19     6     7 1   
    20     6    22 1   
    21     6    23 1   
    22     7     8 1   
    23     7    24 1   
    24     7    25 1   
    25     8     9 1   
    26     8    26 1   
    27     8    27 1   
@<TRIPOS>SUBSTRUCTURE
     1 E8N         1 TEMP              0 ****  ****    0 ROOT
