@<TRIPOS>MOLECULE
E8O
   53    54     1     0     0
SMALL
bcc


@<TRIPOS>ATOM
      1 CAA          0.7490   -18.9710   107.8960 ca         1 E8O       0.139100
      2 CAB          1.8610   -18.2000   107.5090 ca         1 E8O      -0.101300
      3 CAC          2.8960   -18.0460   108.4210 ca         1 E8O      -0.109000
      4 CAD          2.8830   -18.6390   109.6810 ca         1 E8O       0.133600
      5 CAE          1.7880   -19.4090   110.0340 ca         1 E8O      -0.103000
      6 CAF          0.7280   -19.5700   109.1540 ca         1 E8O      -0.219000
      7 CAG         -1.5390   -19.5610   107.3200 c3         1 E8O       0.150400
      8 CAH         -1.8240   -20.9170   106.6890 c3         1 E8O      -0.079700
      9 CAI         -1.7570   -20.8550   105.1660 c3         1 E8O      -0.085100
     10 CAJ         -0.9280   -22.0230   107.2360 c3         1 E8O      -0.085100
     11 CAK          1.9830   -17.5280   106.1560 c3         1 E8O       0.000600
     12 CAL          2.0620   -18.5280   105.0020 c3         1 E8O      -0.080100
     13 CAM          0.9190   -16.4570   105.9050 c3         1 E8O      -0.080100
     14 CAN          3.6590   -17.5260   111.7140 c3         1 E8O       0.246800
     15 CAO          3.7300   -16.0560   111.3280 c3         1 E8O      -0.117100
     16 CAP          5.2280   -18.7680   110.2890 ca         1 E8O       0.640200
     17 CAQ          5.5250   -19.6580   109.2360 ca         1 E8O      -0.327300
     18 CAR          6.8420   -19.9690   108.9890 ca         1 E8O      -0.048000
     19 CAS          7.8660   -19.4310   109.7740 ca         1 E8O      -0.276900
     20 CAT          7.4580   -18.5880   110.7930 ca         1 E8O       0.442200
     21 CAX          9.3280   -19.7490   109.5240 c          1 E8O       0.932200
     22 NAV          3.9380   -18.4270   110.6030 nh         1 E8O      -0.692700
     23 NAW          6.1960   -18.2530   111.0450 nb         1 E8O      -0.775000
     24 OAU         -0.2410   -19.0840   106.9900 os         1 E8O      -0.335900
     25 OAY         10.1510   -19.2770   110.3340 o          1 E8O      -0.828300
     26 OAZ          9.5760   -20.4530   108.5250 o          1 E8O      -0.828300
     27 H1           3.7480   -17.4370   108.1400 ha         1 E8O       0.148000
     28 H2           1.7540   -19.8920   111.0030 ha         1 E8O       0.136000
     29 H3          -0.1020   -20.1890   109.4650 ha         1 E8O       0.126000
     30 H4          -1.6940   -19.5970   108.4010 h1         1 E8O       0.042200
     31 H5          -2.2410   -18.8230   106.9230 h1         1 E8O       0.042200
     32 H6          -2.8570   -21.1460   106.9720 hc         1 E8O       0.038700
     33 H7          -2.0650   -21.8050   104.7280 hc         1 E8O       0.036033
     34 H8          -2.4120   -20.0780   104.7680 hc         1 E8O       0.036033
     35 H9          -0.7430   -20.6490   104.8170 hc         1 E8O       0.036033
     36 H10         -1.0070   -22.1100   108.3210 hc         1 E8O       0.036033
     37 H11         -1.2080   -22.9870   106.8090 hc         1 E8O       0.036033
     38 H12          0.1210   -21.8520   106.9870 hc         1 E8O       0.036033
     39 H13          2.9440   -17.0050   106.1770 hc         1 E8O       0.044700
     40 H14          2.8530   -19.2610   105.1710 hc         1 E8O       0.031867
     41 H15          1.1270   -19.0660   104.8590 hc         1 E8O       0.031867
     42 H16          2.2900   -18.0060   104.0710 hc         1 E8O       0.031867
     43 H17          0.8810   -15.7380   106.7240 hc         1 E8O       0.031867
     44 H18          1.1580   -15.9070   104.9930 hc         1 E8O       0.031867
     45 H19         -0.0760   -16.8820   105.7820 hc         1 E8O       0.031867
     46 H20          2.6630   -17.7650   112.0880 h1         1 E8O       0.047700
     47 H21          4.3600   -17.7390   112.5180 h1         1 E8O       0.047700
     48 H22          3.5000   -15.4280   112.1890 hc         1 E8O       0.034700
     49 H23          4.7250   -15.7920   110.9720 hc         1 E8O       0.034700
     50 H24          3.0120   -15.8180   110.5420 hc         1 E8O       0.034700
     51 H25          4.7380   -20.0940   108.6370 ha         1 E8O       0.122000
     52 H26          7.0850   -20.6470   108.1810 ha         1 E8O       0.146000
     53 H27          8.1970   -18.1410   111.4500 h4         1 E8O       0.029100
@<TRIPOS>BOND
     1     1     2 ar  
     2     1     6 ar  
     3     1    24 1   
     4     2     3 ar  
     5     2    11 1   
     6     3     4 ar  
     7     3    27 1   
     8     4     5 ar  
     9     4    22 1   
    10     5     6 ar  
    11     5    28 1   
    12     6    29 1   
    13     7     8 1   
    14     7    24 1   
    15     7    30 1   
    16     7    31 1   
    17     8     9 1   
    18     8    10 1   
    19     8    32 1   
    20     9    33 1   
    21     9    34 1   
    22     9    35 1   
    23    10    36 1   
    24    10    37 1   
    25    10    38 1   
    26    11    12 1   
    27    11    13 1   
    28    11    39 1   
    29    12    40 1   
    30    12    41 1   
    31    12    42 1   
    32    13    43 1   
    33    13    44 1   
    34    13    45 1   
    35    14    15 1   
    36    14    22 1   
    37    14    46 1   
    38    14    47 1   
    39    15    48 1   
    40    15    49 1   
    41    15    50 1   
    42    16    17 ar  
    43    16    22 1   
    44    16    23 ar  
    45    17    18 ar  
    46    17    51 1   
    47    18    19 ar  
    48    18    52 1   
    49    19    20 ar  
    50    19    21 1   
    51    20    23 ar  
    52    20    53 1   
    53    21    25 1   
    54    21    26 1   
@<TRIPOS>SUBSTRUCTURE
     1 E8O         1 TEMP              0 ****  ****    0 ROOT
