@<TRIPOS>MOLECULE
E8O
   53    54     1     0     0
SMALL
No Charge or Current Charge


@<TRIPOS>ATOM
      1 CAA          0.6470   -18.6460   107.8150 ca         1 E8O       0.139100
      2 CAB          1.9050   -18.1370   107.3960 ca         1 E8O      -0.101300
      3 CAC          2.9660   -18.0790   108.3280 ca         1 E8O      -0.091000
      4 CAD          2.8100   -18.5040   109.6610 ca         1 E8O       0.272000
      5 CAE          1.5490   -18.9810   110.0670 ca         1 E8O      -0.085000
      6 CAF          0.4790   -19.0460   109.1590 ca         1 E8O      -0.201000
      7 CAG         -1.6690   -19.3420   107.1410 c3         1 E8O       0.173600
      8 CAH         -1.6170   -20.8600   106.7850 c3         1 E8O      -0.079700
      9 CAI         -1.2290   -21.1130   105.3100 c3         1 E8O      -0.085100
     10 CAJ         -0.7550   -21.7150   107.7440 c3         1 E8O      -0.085100
     11 CAK          2.1700   -17.6130   105.9720 c3         1 E8O       0.000600
     12 CAL          1.9740   -18.6870   104.8790 c3         1 E8O      -0.080100
     13 CAM          1.3740   -16.3230   105.6710 c3         1 E8O      -0.080100
     14 CAN          3.6630   -17.9350   111.9520 c3         1 E8O       0.246800
     15 CAO          3.1080   -16.4990   112.0100 c3         1 E8O      -0.117100
     16 CAP          5.1940   -18.7940   110.1570 ca         1 E8O       0.574900
     17 CAQ          5.4120   -19.8640   109.2730 ca         1 E8O      -0.244000
     18 CAR          6.7190   -20.1770   108.8750 ca         1 E8O      -0.030000
     19 CAS          7.7750   -19.3950   109.3820 ca         1 E8O      -0.211600
     20 CAT          7.4600   -18.3440   110.2590 ca         1 E8O       0.376900
     21 CAX          9.2060   -19.6570   109.0110 c          1 E8O       0.721600
     22 NAV          3.8990   -18.4310   110.5680 nh         1 E8O      -0.831100
     23 NAW          6.1970   -18.0440   110.6420 nb         1 E8O      -0.775000
     24 OAU         -0.3940   -18.7030   106.9020 os         1 E8O      -0.359100
     25 OAY         10.0740   -18.9400   109.4860 o          1 E8O      -0.723000
     26 OAZ          9.4480   -20.5790   108.2470 o          1 E8O      -0.723000
     27 H1           3.9290   -17.6820   108.0180 ha         1 E8O       0.130000
     28 H2           1.3940   -19.3150   111.0870 ha         1 E8O       0.118000
     29 H3          -0.4710   -19.4140   109.5290 ha         1 E8O       0.108000
     30 H4          -2.0300   -19.1870   108.1640 h1         1 E8O       0.042200
     31 H5          -2.4190   -18.8820   106.4840 h1         1 E8O       0.042200
     32 H6          -2.6460   -21.2230   106.8980 hc         1 E8O       0.038700
     33 H7          -1.3970   -22.1640   105.0430 hc         1 E8O       0.036033
     34 H8          -1.8310   -20.4930   104.6350 hc         1 E8O       0.036033
     35 H9          -0.1710   -20.8890   105.1380 hc         1 E8O       0.036033
     36 H10         -1.0770   -21.5820   108.7830 hc         1 E8O       0.036033
     37 H11         -0.8540   -22.7800   107.4990 hc         1 E8O       0.036033
     38 H12          0.3060   -21.4510   107.6670 hc         1 E8O       0.036033
     39 H13          3.2270   -17.3280   105.9070 hc         1 E8O       0.044700
     40 H14          2.4660   -19.6250   105.1630 hc         1 E8O       0.031867
     41 H15          0.9130   -18.8880   104.7000 hc         1 E8O       0.031867
     42 H16          2.4090   -18.3490   103.9300 hc         1 E8O       0.031867
     43 H17          1.5690   -15.5650   106.4390 hc         1 E8O       0.031867
     44 H18          1.6690   -15.9070   104.7000 hc         1 E8O       0.031867
     45 H19          0.2950   -16.5140   105.6430 hc         1 E8O       0.031867
     46 H20          2.9670   -18.6060   112.4730 h1         1 E8O       0.047700
     47 H21          4.5860   -17.9660   112.5470 h1         1 E8O       0.047700
     48 H22          2.9790   -16.1860   113.0530 hc         1 E8O       0.034700
     49 H23          3.7990   -15.7990   111.5250 hc         1 E8O       0.034700
     50 H24          2.1350   -16.4320   111.5100 hc         1 E8O       0.034700
     51 H25          4.5770   -20.4520   108.9050 ha         1 E8O       0.104000
     52 H26          6.9020   -21.0050   108.1920 ha         1 E8O       0.128000
     53 H27          8.2380   -17.7070   110.6810 h4         1 E8O       0.029100
@<TRIPOS>BOND
     1     1     2 ar  
     2     1     6 ar  
     3     1    24 1   
     4     2     3 ar  
     5     2    11 1   
     6     3     4 ar  
     7     3    27 1   
     8     4     5 ar  
     9     4    22 1   
    10     5     6 ar  
    11     5    28 1   
    12     6    29 1   
    13     7     8 1   
    14     7    24 1   
    15     7    30 1   
    16     7    31 1   
    17     8     9 1   
    18     8    10 1   
    19     8    32 1   
    20     9    33 1   
    21     9    34 1   
    22     9    35 1   
    23    10    36 1   
    24    10    37 1   
    25    10    38 1   
    26    11    12 1   
    27    11    13 1   
    28    11    39 1   
    29    12    40 1   
    30    12    41 1   
    31    12    42 1   
    32    13    43 1   
    33    13    44 1   
    34    13    45 1   
    35    14    15 1   
    36    14    22 1   
    37    14    46 1   
    38    14    47 1   
    39    15    48 1   
    40    15    49 1   
    41    15    50 1   
    42    16    17 ar  
    43    16    22 1   
    44    16    23 ar  
    45    17    18 ar  
    46    17    51 1   
    47    18    19 ar  
    48    18    52 1   
    49    19    20 ar  
    50    19    21 1   
    51    20    23 ar  
    52    20    53 1   
    53    21    25 1   
    54    21    26 1   
@<TRIPOS>SUBSTRUCTURE
     1 E8O         1 TEMP              0 ****  ****    0 ROOT
