@<TRIPOS>MOLECULE
E8P
   65    67     1     0     0
SMALL
No Charge or Current Charge


@<TRIPOS>ATOM
      1 C17          3.0500     0.4370    -0.2500 c3         1 E8P      -0.121700
      2 C22          4.1140     1.6580     1.7870 c          1 E8P       0.602100
      3 C28          1.5520     0.5590     0.1490 c          1 E8P       0.619100
      4 C01          7.4260    -4.3990    -0.4090 c3         1 E8P      -0.088100
      5 C05          6.9150    -2.9870    -0.7520 c3         1 E8P      -0.074400
      6 C08          5.5330    -2.6770    -0.1380 c3         1 E8P      -0.079400
      7 C11          5.0220    -1.2610    -0.4830 c3         1 E8P      -0.073400
      8 C14          3.6380    -0.9530     0.1360 c3         1 E8P      -0.073400
      9 C19          3.8910     1.6510     0.2660 c3         1 E8P      -0.157400
     10 O23          3.2450     2.0030     2.5760 o          1 E8P      -0.553100
     11 N24          5.3910     1.2900     2.1980 ns         1 E8P      -0.390400
     12 O26          5.8370     1.5240     3.5560 oh         1 E8P      -0.436100
     13 O29          1.1410     0.0800     1.2000 o          1 E8P      -0.594100
     14 N30          0.6490     1.2040    -0.7260 n          1 E8P      -0.387800
     15 C31          1.0120     2.2050    -1.7550 c5         1 E8P       0.101700
     16 C33          0.7840     3.5940    -1.0710 c5         1 E8P      -0.106400
     17 C36         -0.7770     3.6850    -0.9470 c5         1 E8P      -0.080400
     18 C39         -1.2520     2.3130    -1.5280 c5         1 E8P      -0.073700
     19 C41         -0.2270     2.1150    -2.6690 c5         1 E8P      -0.091400
     20 C44         -0.8200     1.2230    -0.4800 c5         1 E8P       0.022700
     21 C46         -1.5430    -0.1260    -0.7920 c          1 E8P       0.610100
     22 O47         -1.0850    -1.1060    -1.3680 o          1 E8P      -0.606100
     23 N48         -2.8230    -0.0800    -0.2780 ns         1 E8P      -0.454900
     24 C50         -3.8170    -1.1690    -0.4140 c3         1 E8P      -0.009000
     25 C52         -4.4060    -1.2440    -1.8600 c          1 E8P       0.727000
     26 O53         -4.6160    -0.2040    -2.4730 o          1 E8P      -0.716500
     27 O55         -4.6490    -2.3510    -2.3220 o          1 E8P      -0.716500
     28 C56         -4.9170    -1.0440     0.6380 ca         1 E8P      -0.031300
     29 C57         -5.7530     0.0910     0.6720 ca         1 E8P      -0.102500
     30 C59         -6.7600     0.2030     1.6470 ca         1 E8P      -0.124000
     31 C61         -6.9380    -0.8180     2.5950 ca         1 E8P      -0.138000
     32 C63         -6.1070    -1.9500     2.5690 ca         1 E8P      -0.124000
     33 C65         -5.1000    -2.0620     1.5940 ca         1 E8P      -0.102500
     34 H1           3.0910     0.5190    -1.3410 hc         1 E8P       0.063700
     35 H2           7.5260    -4.5230     0.6770 hc         1 E8P       0.030033
     36 H3           6.7340    -5.1630    -0.7830 hc         1 E8P       0.030033
     37 H4           8.4080    -4.5720    -0.8650 hc         1 E8P       0.030033
     38 H5           7.6450    -2.2480    -0.3970 hc         1 E8P       0.032200
     39 H6           6.8600    -2.8830    -1.8430 hc         1 E8P       0.032200
     40 H7           4.8070    -3.4190    -0.4930 hc         1 E8P       0.043700
     41 H8           5.5920    -2.7830     0.9530 hc         1 E8P       0.043700
     42 H9           5.7570    -0.5280    -0.1320 hc         1 E8P       0.026200
     43 H10          4.9600    -1.1570    -1.5740 hc         1 E8P       0.026200
     44 H11          3.6960    -1.0460     1.2280 hc         1 E8P       0.065700
     45 H12          2.9350    -1.7280    -0.1990 hc         1 E8P       0.065700
     46 H13          4.8620     1.6290    -0.2420 hc         1 E8P       0.059700
     47 H14          3.3760     2.5770    -0.0100 hc         1 E8P       0.059700
     48 H15          6.1230     1.1700     1.5000 hn         1 E8P       0.328500
     49 H16          6.2130     0.6540     3.8310 ho         1 E8P       0.447000
     50 H17          1.9790     2.0720    -2.2560 h1         1 E8P       0.060700
     51 H18          1.2800     3.6680    -0.0960 hc         1 E8P       0.044700
     52 H19          1.1760     4.4080    -1.6910 hc         1 E8P       0.044700
     53 H20         -1.1070     3.8440     0.0870 hc         1 E8P       0.042700
     54 H21         -1.1690     4.5220    -1.5380 hc         1 E8P       0.042700
     55 H22         -2.3090     2.2880    -1.8240 hc         1 E8P       0.118700
     56 H23         -0.2620     2.9000    -3.4340 hc         1 E8P       0.071700
     57 H24         -0.3170     1.1450    -3.1720 hc         1 E8P       0.071700
     58 H25         -1.0580     1.5180     0.5510 h1         1 E8P       0.066700
     59 H26         -3.1040     0.7760     0.1830 hn         1 E8P       0.294500
     60 H27         -3.2880    -2.1160    -0.2500 h1         1 E8P       0.069700
     61 H29         -5.6250     0.8880    -0.0580 ha         1 E8P       0.119500
     62 H30         -7.4020     1.0810     1.6670 ha         1 E8P       0.091500
     63 H31         -7.7170    -0.7310     3.3490 ha         1 E8P       0.088000
     64 H32         -6.2430    -2.7410     3.3030 ha         1 E8P       0.091500
     65 H33         -4.4620    -2.9430     1.5840 ha         1 E8P       0.119500
@<TRIPOS>BOND
     1     1     3 1   
     2     1     8 1   
     3     1     9 1   
     4     1    34 1   
     5     2     9 1   
     6     2    10 2   
     7     2    11 1   
     8     3    13 2   
     9     3    14 1   
    10     4     5 1   
    11     4    35 1   
    12     4    36 1   
    13     4    37 1   
    14     5     6 1   
    15     5    38 1   
    16     5    39 1   
    17     6     7 1   
    18     6    40 1   
    19     6    41 1   
    20     7     8 1   
    21     7    42 1   
    22     7    43 1   
    23     8    44 1   
    24     8    45 1   
    25     9    46 1   
    26     9    47 1   
    27    11    12 1   
    28    11    48 1   
    29    12    49 1   
    30    14    15 1   
    31    14    20 1   
    32    15    16 1   
    33    15    19 1   
    34    15    50 1   
    35    16    17 1   
    36    16    51 1   
    37    16    52 1   
    38    17    18 1   
    39    17    53 1   
    40    17    54 1   
    41    18    19 1   
    42    18    20 1   
    43    18    55 1   
    44    19    56 1   
    45    19    57 1   
    46    20    21 1   
    47    20    58 1   
    48    21    22 2   
    49    21    23 1   
    50    23    24 1   
    51    23    59 1   
    52    24    25 1   
    53    24    28 1   
    54    24    60 1   
    55    25    26 1   
    56    25    27 1   
    57    28    29 ar  
    58    28    33 ar  
    59    29    30 ar  
    60    29    61 1   
    61    30    31 ar  
    62    30    62 1   
    63    31    32 ar  
    64    31    63 1   
    65    32    33 ar  
    66    32    64 1   
    67    33    65 1   
@<TRIPOS>SUBSTRUCTURE
     1 E8P         1 TEMP              0 ****  ****    0 ROOT
