@<TRIPOS>MOLECULE
E8P
   65    67     1     0     0
SMALL
abcg2


@<TRIPOS>ATOM
      1 C17          2.9460     0.2940    -0.5290 c3         1 E8P      -0.121700
      2 C22          3.6190     1.7460     1.4390 c          1 E8P       0.602100
      3 C28          1.4720     0.3930    -0.1470 c          1 E8P       0.619100
      4 C01          7.3270    -4.3800    -0.1340 c3         1 E8P      -0.088100
      5 C05          6.8740    -2.9760    -0.5130 c3         1 E8P      -0.074400
      6 C08          5.4310    -2.6920    -0.1150 c3         1 E8P      -0.079400
      7 C11          4.9660    -1.2880    -0.4810 c3         1 E8P      -0.073400
      8 C14          3.5310    -1.0290    -0.0340 c3         1 E8P      -0.073400
      9 C19          3.7430     1.5210    -0.0490 c3         1 E8P      -0.157400
     10 O23          2.6140     2.2010     1.9540 o          1 E8P      -0.553100
     11 N24          4.7010     1.3550     2.1390 ns         1 E8P      -0.390400
     12 O26          4.7850     1.6210     3.4720 oh         1 E8P      -0.436100
     13 O29          0.9880    -0.3100     0.7320 o          1 E8P      -0.594100
     14 N30          0.7010     1.2540    -0.8270 n          1 E8P      -0.387800
     15 C31          1.0420     2.2240    -1.8690 c5         1 E8P       0.101700
     16 C33          0.9630     3.6260    -1.2410 c5         1 E8P      -0.106400
     17 C36         -0.5620     3.7970    -1.0070 c5         1 E8P      -0.080400
     18 C39         -1.1430     2.4700    -1.5200 c5         1 E8P      -0.073700
     19 C41         -0.2280     2.1830    -2.7150 c5         1 E8P      -0.091400
     20 C44         -0.7140     1.3660    -0.5290 c5         1 E8P       0.022700
     21 C46         -1.4670     0.0680    -0.7800 c          1 E8P       0.610100
     22 O47         -1.1500    -0.7220    -1.6560 o          1 E8P      -0.606100
     23 N48         -2.5340    -0.1050     0.0120 ns         1 E8P      -0.454900
     24 C50         -3.5470    -1.0840    -0.3030 c3         1 E8P      -0.009000
     25 C52         -4.2430    -0.8060    -1.6710 c          1 E8P       0.727000
     26 O53         -4.2270     0.3630    -2.0860 o          1 E8P      -0.716500
     27 O55         -4.7890    -1.7980    -2.1870 o          1 E8P      -0.716500
     28 C56         -4.6000    -1.0990     0.7740 ca         1 E8P      -0.031300
     29 C57         -5.3160     0.0600     1.0800 ca         1 E8P      -0.102500
     30 C59         -6.2950     0.0470     2.0630 ca         1 E8P      -0.124000
     31 C61         -6.5820    -1.1270     2.7490 ca         1 E8P      -0.138000
     32 C63         -5.8820    -2.2860     2.4450 ca         1 E8P      -0.124000
     33 C65         -4.8970    -2.2690     1.4650 ca         1 E8P      -0.102500
     34 H1           3.0140     0.2970    -1.6220 hc         1 E8P       0.063700
     35 H2           7.2430    -4.5430     0.9420 hc         1 E8P       0.030033
     36 H3           6.7210    -5.1390    -0.6300 hc         1 E8P       0.030033
     37 H4           8.3670    -4.5540    -0.4130 hc         1 E8P       0.030033
     38 H5           7.5320    -2.2400    -0.0400 hc         1 E8P       0.032200
     39 H6           6.9870    -2.8330    -1.5920 hc         1 E8P       0.032200
     40 H7           4.7720    -3.4270    -0.5890 hc         1 E8P       0.043700
     41 H8           5.3190    -2.8370     0.9660 hc         1 E8P       0.043700
     42 H9           5.6510    -0.5660    -0.0270 hc         1 E8P       0.026200
     43 H10          5.0490    -1.1460    -1.5650 hc         1 E8P       0.026200
     44 H11          3.4730    -1.0850     1.0560 hc         1 E8P       0.065700
     45 H12          2.9040    -1.8420    -0.4100 hc         1 E8P       0.065700
     46 H13          4.7830     1.4020    -0.3550 hc         1 E8P       0.059700
     47 H14          3.3850     2.4260    -0.5410 hc         1 E8P       0.059700
     48 H15          5.5840     1.1440     1.6960 hn         1 E8P       0.328500
     49 H16          4.4910     0.8200     3.9260 ho         1 E8P       0.447000
     50 H17          1.9760     1.9870    -2.3710 h1         1 E8P       0.060700
     51 H18          1.5420     3.6850    -0.3200 hc         1 E8P       0.044700
     52 H19          1.3570     4.3760    -1.9290 hc         1 E8P       0.044700
     53 H20         -0.8110     3.9780     0.0400 hc         1 E8P       0.042700
     54 H21         -0.9610     4.6320    -1.5850 hc         1 E8P       0.042700
     55 H22         -2.2150     2.4750    -1.7090 hc         1 E8P       0.118700
     56 H23         -0.2590     2.9730    -3.4670 hc         1 E8P       0.071700
     57 H24         -0.3980     1.2200    -3.1920 hc         1 E8P       0.071700
     58 H25         -0.8790     1.6900     0.5050 h1         1 E8P       0.066700
     59 H26         -2.7580     0.6230     0.6720 hn         1 E8P       0.294500
     60 H27         -3.0830    -2.0730    -0.3470 h1         1 E8P       0.069700
     61 H29         -5.1160     0.9760     0.5360 ha         1 E8P       0.119500
     62 H30         -6.8400     0.9550     2.2890 ha         1 E8P       0.091500
     63 H31         -7.3460    -1.1370     3.5150 ha         1 E8P       0.088000
     64 H32         -6.0980    -3.2060     2.9740 ha         1 E8P       0.091500
     65 H33         -4.3480    -3.1750     1.2390 ha         1 E8P       0.119500
@<TRIPOS>BOND
     1     1     3 1   
     2     1     8 1   
     3     1     9 1   
     4     1    34 1   
     5     2     9 1   
     6     2    10 2   
     7     2    11 1   
     8     3    13 2   
     9     3    14 1   
    10     4     5 1   
    11     4    35 1   
    12     4    36 1   
    13     4    37 1   
    14     5     6 1   
    15     5    38 1   
    16     5    39 1   
    17     6     7 1   
    18     6    40 1   
    19     6    41 1   
    20     7     8 1   
    21     7    42 1   
    22     7    43 1   
    23     8    44 1   
    24     8    45 1   
    25     9    46 1   
    26     9    47 1   
    27    11    12 1   
    28    11    48 1   
    29    12    49 1   
    30    14    15 1   
    31    14    20 1   
    32    15    16 1   
    33    15    19 1   
    34    15    50 1   
    35    16    17 1   
    36    16    51 1   
    37    16    52 1   
    38    17    18 1   
    39    17    53 1   
    40    17    54 1   
    41    18    19 1   
    42    18    20 1   
    43    18    55 1   
    44    19    56 1   
    45    19    57 1   
    46    20    21 1   
    47    20    58 1   
    48    21    22 2   
    49    21    23 1   
    50    23    24 1   
    51    23    59 1   
    52    24    25 1   
    53    24    28 1   
    54    24    60 1   
    55    25    26 1   
    56    25    27 1   
    57    28    29 ar  
    58    28    33 ar  
    59    29    30 ar  
    60    29    61 1   
    61    30    31 ar  
    62    30    62 1   
    63    31    32 ar  
    64    31    63 1   
    65    32    33 ar  
    66    32    64 1   
    67    33    65 1   
@<TRIPOS>SUBSTRUCTURE
     1 E8P         1 TEMP              0 ****  ****    0 ROOT
