@<TRIPOS>MOLECULE
E8R
   47    47     1     0     0
SMALL
abcg2


@<TRIPOS>ATOM
      1 C1           6.9100    -0.2830    -0.9920 c3         1 E8R      -0.047800
      2 C2           5.5390     0.1660    -0.5790 ca         1 E8R      -0.067300
      3 CD1          5.0080     1.3540    -1.0640 ca         1 E8R      -0.112000
      4 CG1          3.7400     1.7850    -0.6910 ca         1 E8R      -0.098000
      5 CB           2.9750     1.0280     0.1830 ca         1 E8R      -0.115300
      6 CA           1.5940     1.4670     0.5890 c3         1 E8R       0.161300
      7 N            0.6010     0.5580     0.0580 ns         1 E8R      -0.512900
      8 C7          -0.6520     0.4860     0.5710 c          1 E8R       0.646100
      9 O           -0.9890     1.0660     1.5980 o          1 E8R      -0.644100
     10 N2          -1.5180    -0.3180    -0.1120 ns         1 E8R      -0.496900
     11 C8          -2.9160    -0.2940     0.2230 c3         1 E8R       0.048700
     12 C9          -3.6930    -1.2340    -0.7000 c3         1 E8R      -0.085400
     13 C10         -3.2830    -2.7060    -0.6220 c3         1 E8R      -0.057700
     14 C11         -3.4870    -3.2870     0.7740 c3         1 E8R      -0.090600
     15 C12         -4.0730    -3.5050    -1.6540 c3         1 E8R      -0.090600
     16 C13         -3.4800     1.1210     0.0780 c          1 E8R       0.584100
     17 O2          -3.1520     1.8680    -0.8230 o          1 E8R      -0.572100
     18 N3          -4.4270     1.4050     0.9890 ns         1 E8R      -0.376400
     19 O3          -4.9630     2.6570     1.0440 oh         1 E8R      -0.423100
     20 CG2          3.5070    -0.1650     0.6700 ca         1 E8R      -0.088000
     21 C15          4.7720    -0.6070     0.3080 ca         1 E8R      -0.080300
     22 C16          5.3120    -1.8950     0.8570 c3         1 E8R      -0.046800
     23 H1           7.5930    -0.3200    -0.1410 hc         1 E8R       0.042033
     24 H2           6.8930    -1.2850    -1.4250 hc         1 E8R       0.042033
     25 H3           7.3410     0.3910    -1.7320 hc         1 E8R       0.042033
     26 H4           5.5930     1.9560    -1.7490 ha         1 E8R       0.112000
     27 H5           3.3490     2.7150    -1.0880 ha         1 E8R       0.114000
     28 H6           1.5090     1.4760     1.6760 h1         1 E8R       0.060200
     29 H7           1.4210     2.4930     0.2470 h1         1 E8R       0.060200
     30 H8           0.7750     0.1840    -0.8610 hn         1 E8R       0.308500
     31 H9          -1.2800    -0.5970    -1.0510 hn         1 E8R       0.309500
     32 H10         -3.0450    -0.6270     1.2560 h1         1 E8R       0.077700
     33 H11         -4.7560    -1.1490    -0.4530 hc         1 E8R       0.054700
     34 H12         -3.5880    -0.8800    -1.7320 hc         1 E8R       0.054700
     35 H13         -2.2210    -2.7890    -0.8750 hc         1 E8R       0.050700
     36 H14         -4.5290    -3.1940     1.0880 hc         1 E8R       0.035367
     37 H15         -3.2290    -4.3470     0.7920 hc         1 E8R       0.035367
     38 H16         -2.8700    -2.7940     1.5260 hc         1 E8R       0.035367
     39 H17         -3.8880    -3.1440    -2.6670 hc         1 E8R       0.035367
     40 H18         -3.8020    -4.5610    -1.6240 hc         1 E8R       0.035367
     41 H19         -5.1470    -3.4340    -1.4660 hc         1 E8R       0.035367
     42 H20         -4.5290     0.8690     1.8390 hn         1 E8R       0.337500
     43 H21         -5.8080     2.6080     0.5790 ho         1 E8R       0.442000
     44 H22          2.9160    -0.7650     1.3550 ha         1 E8R       0.118000
     45 H23          6.2620    -1.7450     1.3750 hc         1 E8R       0.041700
     46 H24          4.6170    -2.3490     1.5620 hc         1 E8R       0.041700
     47 H25          5.5010    -2.6210     0.0630 hc         1 E8R       0.041700
@<TRIPOS>BOND
     1     1     2 1   
     2     1    23 1   
     3     1    24 1   
     4     1    25 1   
     5     2     3 ar  
     6     2    21 ar  
     7     3     4 ar  
     8     3    26 1   
     9     4     5 ar  
    10     4    27 1   
    11     5     6 1   
    12     5    20 ar  
    13     6     7 1   
    14     6    28 1   
    15     6    29 1   
    16     7     8 1   
    17     7    30 1   
    18     8     9 2   
    19     8    10 1   
    20    10    11 1   
    21    10    31 1   
    22    11    12 1   
    23    11    16 1   
    24    11    32 1   
    25    12    13 1   
    26    12    33 1   
    27    12    34 1   
    28    13    14 1   
    29    13    15 1   
    30    13    35 1   
    31    14    36 1   
    32    14    37 1   
    33    14    38 1   
    34    15    39 1   
    35    15    40 1   
    36    15    41 1   
    37    16    17 2   
    38    16    18 1   
    39    18    19 1   
    40    18    42 1   
    41    19    43 1   
    42    20    21 ar  
    43    20    44 1   
    44    21    22 1   
    45    22    45 1   
    46    22    46 1   
    47    22    47 1   
@<TRIPOS>SUBSTRUCTURE
     1 E8R         1 TEMP              0 ****  ****    0 ROOT
