@<TRIPOS>MOLECULE
E8R
   47    47     1     0     0
SMALL
No Charge or Current Charge


@<TRIPOS>ATOM
      1 C1           6.8420     0.3600    -1.4830 c3         1 E8R      -0.047800
      2 C2           5.5140     0.3150    -0.7320 ca         1 E8R      -0.067300
      3 CD1          4.9170     1.5200    -0.3110 ca         1 E8R      -0.112000
      4 CG1          3.6960     1.5100     0.3810 ca         1 E8R      -0.098000
      5 CB           3.0540     0.2930     0.6640 ca         1 E8R      -0.115300
      6 CA           1.7290     0.2790     1.4100 c3         1 E8R       0.161300
      7 N            0.6040     0.3040     0.4800 ns         1 E8R      -0.512900
      8 C7          -0.7040     0.2410     0.8630 c          1 E8R       0.646100
      9 O           -1.0580     0.1670     2.0270 o          1 E8R      -0.644100
     10 N2          -1.5650     0.2780    -0.1990 ns         1 E8R      -0.496900
     11 C8          -3.0420     0.2000    -0.1050 c3         1 E8R       0.048700
     12 C9          -3.5450    -1.2220    -0.4900 c3         1 E8R      -0.085400
     13 C10         -3.1080    -2.3780     0.4530 c3         1 E8R      -0.057700
     14 C11         -3.7110    -2.2480     1.8730 c3         1 E8R      -0.090600
     15 C12         -3.4600    -3.7530    -0.1600 c3         1 E8R      -0.090600
     16 C13         -3.6980     1.2910    -1.0070 c          1 E8R       0.584100
     17 O2          -3.0830     1.8990    -1.8780 o          1 E8R      -0.572100
     18 N3          -5.0480     1.5300    -0.7550 ns         1 E8R      -0.376400
     19 O3          -5.7210     2.6800    -1.3230 oh         1 E8R      -0.423100
     20 CG2          3.6440    -0.9140     0.2440 ca         1 E8R      -0.088000
     21 C15          4.8700    -0.9140    -0.4520 ca         1 E8R      -0.080300
     22 C16          5.4790    -2.2430    -0.8900 c3         1 E8R      -0.046800
     23 H1           7.6200    -0.1910    -0.9420 hc         1 E8R       0.042033
     24 H2           6.7460    -0.0820    -2.4810 hc         1 E8R       0.042033
     25 H3           7.2010     1.3880    -1.6140 hc         1 E8R       0.042033
     26 H4           5.4010     2.4720    -0.5220 ha         1 E8R       0.112000
     27 H5           3.2490     2.4510     0.6960 ha         1 E8R       0.114000
     28 H6           1.6600    -0.6250     2.0300 h1         1 E8R       0.060200
     29 H7           1.6630     1.1510     2.0740 h1         1 E8R       0.060200
     30 H8           0.8030     0.3640    -0.5090 hn         1 E8R       0.308500
     31 H9          -1.1560     0.3840    -1.1180 hn         1 E8R       0.309500
     32 H10         -3.3510     0.4290     0.9230 h1         1 E8R       0.077700
     33 H11         -4.6410    -1.2160    -0.5400 hc         1 E8R       0.054700
     34 H12         -3.1970    -1.4410    -1.5080 hc         1 E8R       0.054700
     35 H13         -2.0160    -2.3470     0.5520 hc         1 E8R       0.050700
     36 H14         -4.8070    -2.2550     1.8330 hc         1 E8R       0.035367
     37 H15         -3.3880    -3.0830     2.5070 hc         1 E8R       0.035367
     38 H16         -3.3910    -1.3220     2.3610 hc         1 E8R       0.035367
     39 H17         -2.9830    -3.8750    -1.1400 hc         1 E8R       0.035367
     40 H18         -3.1110    -4.5670     0.4860 hc         1 E8R       0.035367
     41 H19         -4.5440    -3.8580    -0.2890 hc         1 E8R       0.035367
     42 H20         -5.4850     1.1140     0.0670 hn         1 E8R       0.337500
     43 H21         -6.5380     2.2980    -1.7210 ho         1 E8R       0.442000
     44 H22          3.1440    -1.8560     0.4600 ha         1 E8R       0.118000
     45 H23          6.4680    -2.3920    -0.4400 hc         1 E8R       0.041700
     46 H24          4.8550    -3.0950    -0.5960 hc         1 E8R       0.041700
     47 H25          5.5930    -2.2850    -1.9800 hc         1 E8R       0.041700
@<TRIPOS>BOND
     1     1     2 1   
     2     1    23 1   
     3     1    24 1   
     4     1    25 1   
     5     2     3 ar  
     6     2    21 ar  
     7     3     4 ar  
     8     3    26 1   
     9     4     5 ar  
    10     4    27 1   
    11     5     6 1   
    12     5    20 ar  
    13     6     7 1   
    14     6    28 1   
    15     6    29 1   
    16     7     8 1   
    17     7    30 1   
    18     8     9 2   
    19     8    10 1   
    20    10    11 1   
    21    10    31 1   
    22    11    12 1   
    23    11    16 1   
    24    11    32 1   
    25    12    13 1   
    26    12    33 1   
    27    12    34 1   
    28    13    14 1   
    29    13    15 1   
    30    13    35 1   
    31    14    36 1   
    32    14    37 1   
    33    14    38 1   
    34    15    39 1   
    35    15    40 1   
    36    15    41 1   
    37    16    17 2   
    38    16    18 1   
    39    18    19 1   
    40    18    42 1   
    41    19    43 1   
    42    20    21 ar  
    43    20    44 1   
    44    21    22 1   
    45    22    45 1   
    46    22    46 1   
    47    22    47 1   
@<TRIPOS>SUBSTRUCTURE
     1 E8R         1 TEMP              0 ****  ****    0 ROOT
