@<TRIPOS>MOLECULE
E8S
   55    58     1     0     0
SMALL
No Charge or Current Charge


@<TRIPOS>ATOM
      1 C14          4.6090    -0.6300     0.7050 ca         1 E8S      -0.200000
      2 O17          0.5110    -1.7320    -2.1570 o          1 E8S      -0.534500
      3 N19          0.4720     0.4710    -0.8270 n3         1 E8S      -0.774500
      4 C23         -1.3360    -0.4590     0.7390 ca         1 E8S      -0.132300
      5 C24         -1.7550    -1.7140     0.2230 ca         1 E8S      -0.078000
      6 C28         -3.9480    -1.3660     1.1590 ca         1 E8S       0.066100
      7 C30         -5.6840    -0.4500     2.1720 c5         1 E8S       0.372600
      8 O33         -4.5330     0.4440     2.3830 os         1 E8S      -0.348100
      9 C01          5.8020    -3.6270     2.5710 c3         1 E8S       0.145900
     10 O05          5.6610    -2.2950     2.0440 os         1 E8S      -0.336100
     11 C06          4.6590    -1.9560     1.1580 ca         1 E8S       0.196100
     12 C07          3.7000    -2.8860     0.7020 ca         1 E8S      -0.200000
     13 C09          2.7000    -2.4840    -0.2000 ca         1 E8S       0.028500
     14 C11          2.6580    -1.1500    -0.6500 ca         1 E8S      -0.335500
     15 C12          3.6130    -0.2210    -0.1970 ca         1 E8S       0.028500
     16 S16          1.3770    -0.6100    -1.7870 sy         1 E8S       1.199600
     17 O18          2.0480     0.2210    -2.7930 o          1 E8S      -0.534500
     18 C20          0.0990     0.0340     0.5470 c3         1 E8S       0.277100
     19 C26         -3.0730    -2.1750     0.4270 ca         1 E8S      -0.081000
     20 O29         -5.2370    -1.6620     1.4680 os         1 E8S      -0.339100
     21 C34         -3.5480    -0.1700     1.6810 ca         1 E8S       0.039100
     22 C35         -2.2470     0.3140     1.5030 ca         1 E8S      -0.104000
     23 C37         -0.4260     1.4330    -1.5660 c3         1 E8S       0.165500
     24 C39         -0.6610     2.7670    -0.7960 c3         1 E8S      -0.004100
     25 C42          0.5950     3.5900    -0.6250 cc         1 E8S      -0.219300
     26 C43          1.0270     4.6260    -1.4140 cd         1 E8S      -0.130000
     27 C45          2.2560     5.1960    -0.9840 cd         1 E8S      -0.132000
     28 C47          2.7710     4.6010     0.1390 cc         1 E8S      -0.244000
     29 S49          1.7240     3.3020     0.7000 ss         1 E8S       0.203000
     30 C50         -1.7410     0.8460    -2.1980 c          1 E8S       0.581100
     31 O51         -1.7350     0.2540    -3.2730 o          1 E8S      -0.554100
     32 N52         -2.9380     1.1100    -1.5300 ns         1 E8S      -0.374400
     33 O54         -4.1750     0.4720    -1.9370 oh         1 E8S      -0.426100
     34 H1           5.3450     0.0870     1.0570 ha         1 E8S       0.127000
     35 H2          -1.0600    -2.3420    -0.3260 ha         1 E8S       0.152000
     36 H3          -6.1230    -0.7230     3.1390 h2         1 E8S       0.064700
     37 H4          -6.4280     0.0670     1.5550 h2         1 E8S       0.064700
     38 H5           4.9050    -3.9220     3.1290 h1         1 E8S       0.046700
     39 H6           5.9690    -4.3500     1.7630 h1         1 E8S       0.046700
     40 H7           6.6590    -3.6770     3.2540 h1         1 E8S       0.046700
     41 H8           3.7120    -3.9190     1.0350 ha         1 E8S       0.127000
     42 H9           1.9640    -3.2110    -0.5410 ha         1 E8S       0.137000
     43 H10          3.5810     0.8140    -0.5360 ha         1 E8S       0.137000
     44 H11          0.7710    -0.7480     0.9190 h1         1 E8S       0.057700
     45 H12          0.2490     0.8780     1.2320 h1         1 E8S       0.057700
     46 H13         -3.4000    -3.1340     0.0330 ha         1 E8S       0.143000
     47 H14         -1.9530     1.2590     1.9530 ha         1 E8S       0.127000
     48 H15          0.1150     1.7660    -2.4620 h1         1 E8S       0.111700
     49 H16         -1.3890     3.3710    -1.3530 hc         1 E8S       0.058700
     50 H17         -1.1160     2.5740     0.1810 hc         1 E8S       0.058700
     51 H18          0.4850     4.9780    -2.2870 ha         1 E8S       0.141000
     52 H19          2.7400     6.0230    -1.4960 ha         1 E8S       0.139000
     53 H20          3.6820     4.8260     0.6790 h4         1 E8S       0.154000
     54 H21         -2.9050     1.4360    -0.5660 hn         1 E8S       0.334500
     55 H22         -4.8140     1.2210    -1.9970 ho         1 E8S       0.447000
@<TRIPOS>BOND
     1     1    11 ar  
     2     1    15 ar  
     3     1    34 1   
     4     2    16 2   
     5     3    16 1   
     6     3    18 1   
     7     3    23 1   
     8     4     5 ar  
     9     4    18 1   
    10     4    22 ar  
    11     5    19 ar  
    12     5    35 1   
    13     6    19 ar  
    14     6    20 1   
    15     6    21 ar  
    16     7     8 1   
    17     7    20 1   
    18     7    36 1   
    19     7    37 1   
    20     8    21 1   
    21     9    10 1   
    22     9    38 1   
    23     9    39 1   
    24     9    40 1   
    25    10    11 1   
    26    11    12 ar  
    27    12    13 ar  
    28    12    41 1   
    29    13    14 ar  
    30    13    42 1   
    31    14    15 ar  
    32    14    16 1   
    33    15    43 1   
    34    16    17 2   
    35    18    44 1   
    36    18    45 1   
    37    19    46 1   
    38    21    22 ar  
    39    22    47 1   
    40    23    24 1   
    41    23    30 1   
    42    23    48 1   
    43    24    25 1   
    44    24    49 1   
    45    24    50 1   
    46    25    26 2   
    47    25    29 1   
    48    26    27 1   
    49    26    51 1   
    50    27    28 2   
    51    27    52 1   
    52    28    29 1   
    53    28    53 1   
    54    30    31 2   
    55    30    32 1   
    56    32    33 1   
    57    32    54 1   
    58    33    55 1   
@<TRIPOS>SUBSTRUCTURE
     1 E8S         1 TEMP              0 ****  ****    0 ROOT
