@<TRIPOS>MOLECULE
E8S
   55    58     1     0     0
SMALL
bcc


@<TRIPOS>ATOM
      1 C14          4.4470     0.0370     0.3210 ca         1 E8S      -0.218000
      2 O17          0.5520    -2.3350    -1.7090 o          1 E8S      -0.605300
      3 N19          0.1280     0.0060    -0.7470 n3         1 E8S      -0.774500
      4 C23         -1.7740    -0.6850     0.7140 ca         1 E8S      -0.132300
      5 C24         -2.4100    -1.6730    -0.0270 ca         1 E8S      -0.096000
      6 C28         -4.4900    -1.0770     0.9180 ca         1 E8S       0.066100
      7 C30         -6.0500     0.0720     1.9960 c5         1 E8S       0.326200
      8 O33         -4.7820     0.5240     2.4510 os         1 E8S      -0.324900
      9 C01          6.5630    -2.3420     2.0710 c3         1 E8S       0.122700
     10 O05          6.0410    -1.1380     1.5350 os         1 E8S      -0.312900
     11 C06          4.9050    -1.1850     0.8320 ca         1 E8S       0.196100
     12 C07          4.1770    -2.3490     0.5910 ca         1 E8S      -0.218000
     13 C09          3.0080    -2.2910    -0.1540 ca         1 E8S       0.010500
     14 C11          2.5660    -1.0780    -0.6550 ca         1 E8S      -0.335500
     15 C12          3.2880     0.0890    -0.4180 ca         1 E8S       0.010500
     16 S16          1.1020    -0.9880    -1.6340 sy         1 E8S       1.341200
     17 O18          1.4070    -0.2880    -2.8730 o          1 E8S      -0.605300
     18 C20         -0.2910    -0.4490     0.5770 c3         1 E8S       0.277100
     19 C26         -3.7880    -1.8870     0.0600 ca         1 E8S      -0.099000
     20 O29         -5.8150    -1.0830     1.2010 os         1 E8S      -0.315900
     21 C34         -3.8640    -0.1020     1.6740 ca         1 E8S       0.039100
     22 C35         -2.5110     0.1170     1.5990 ca         1 E8S      -0.122000
     23 C37         -0.5230     1.1450    -1.3670 c3         1 E8S       0.165500
     24 C39         -0.5370     2.3690    -0.4450 c3         1 E8S      -0.004100
     25 C42          0.8480     2.8470    -0.1410 cc         1 E8S      -0.074400
     26 C43          1.7240     3.4550    -0.9930 cd         1 E8S      -0.148000
     27 C45          2.9680     3.7730    -0.3820 cd         1 E8S      -0.150000
     28 C47          3.0170     3.4050     0.9280 cc         1 E8S      -0.117100
     29 S49          1.5520     2.6690     1.4190 ss         1 E8S      -0.086800
     30 C50         -1.8620     0.7120    -1.9890 c          1 E8S       0.648100
     31 O51         -1.8750    -0.1570    -2.8390 o          1 E8S      -0.554100
     32 N52         -2.9470     1.4020    -1.6010 ns         1 E8S      -0.441400
     33 O54         -4.1780     1.0020    -2.0250 oh         1 E8S      -0.387100
     34 H1           5.0100     0.9420     0.5100 ha         1 E8S       0.145000
     35 H2          -1.8300    -2.2830    -0.7050 ha         1 E8S       0.170000
     36 H3          -6.6780    -0.1880     2.8480 h2         1 E8S       0.064700
     37 H4          -6.5270     0.8500     1.3900 h2         1 E8S       0.064700
     38 H5           5.8750    -2.7990     2.7860 h1         1 E8S       0.046700
     39 H6           6.7950    -3.0660     1.2860 h1         1 E8S       0.046700
     40 H7           7.4810    -2.0750     2.5870 h1         1 E8S       0.046700
     41 H8           4.5010    -3.3080     0.9690 ha         1 E8S       0.145000
     42 H9           2.4540    -3.2020    -0.3320 ha         1 E8S       0.155000
     43 H10          2.9450     1.0430    -0.7990 ha         1 E8S       0.155000
     44 H11          0.2550    -1.3620     0.8200 h1         1 E8S       0.057700
     45 H12          0.0340     0.2810     1.3200 h1         1 E8S       0.057700
     46 H13         -4.2740    -2.6570    -0.5220 ha         1 E8S       0.161000
     47 H14         -2.0350     0.8800     2.2030 ha         1 E8S       0.145000
     48 H15          0.0770     1.4310    -2.2320 h1         1 E8S       0.111700
     49 H16         -1.0710     3.1710    -0.9600 hc         1 E8S       0.058700
     50 H17         -1.0890     2.1800     0.4780 hc         1 E8S       0.058700
     51 H18          1.4860     3.6760    -2.0250 ha         1 E8S       0.159000
     52 H19          3.7860     4.2580    -0.8950 ha         1 E8S       0.157000
     53 H20          3.8290     3.5280     1.6280 h4         1 E8S       0.172000
     54 H21         -2.9660     1.9480    -0.7520 hn         1 E8S       0.334500
     55 H22         -4.4180     1.6050    -2.7400 ho         1 E8S       0.408000
@<TRIPOS>BOND
     1     1    11 ar  
     2     1    15 ar  
     3     1    34 1   
     4     2    16 2   
     5     3    16 1   
     6     3    18 1   
     7     3    23 1   
     8     4     5 ar  
     9     4    18 1   
    10     4    22 ar  
    11     5    19 ar  
    12     5    35 1   
    13     6    19 ar  
    14     6    20 1   
    15     6    21 ar  
    16     7     8 1   
    17     7    20 1   
    18     7    36 1   
    19     7    37 1   
    20     8    21 1   
    21     9    10 1   
    22     9    38 1   
    23     9    39 1   
    24     9    40 1   
    25    10    11 1   
    26    11    12 ar  
    27    12    13 ar  
    28    12    41 1   
    29    13    14 ar  
    30    13    42 1   
    31    14    15 ar  
    32    14    16 1   
    33    15    43 1   
    34    16    17 2   
    35    18    44 1   
    36    18    45 1   
    37    19    46 1   
    38    21    22 ar  
    39    22    47 1   
    40    23    24 1   
    41    23    30 1   
    42    23    48 1   
    43    24    25 1   
    44    24    49 1   
    45    24    50 1   
    46    25    26 2   
    47    25    29 1   
    48    26    27 1   
    49    26    51 1   
    50    27    28 2   
    51    27    52 1   
    52    28    29 1   
    53    28    53 1   
    54    30    31 2   
    55    30    32 1   
    56    32    33 1   
    57    32    54 1   
    58    33    55 1   
@<TRIPOS>SUBSTRUCTURE
     1 E8S         1 TEMP              0 ****  ****    0 ROOT
