@<TRIPOS>MOLECULE
E8T
   76    80     1     0     0
SMALL
abcg2


@<TRIPOS>ATOM
      1 C1         -22.1100   -41.0670    17.8870 c6         1 E8T      -0.043500
      2 C2         -22.6310   -40.2420    19.0990 c6         1 E8T      -0.041700
      3 C3         -23.2180   -41.3340    16.9290 c2         1 E8T      -0.107200
      4 C4         -23.2850   -38.9180    18.6650 c3         1 E8T      -0.058200
      5 C6         -24.0510   -36.8490    16.4100 c          1 E8T       0.601300
      6 O5         -25.0910   -37.3170    16.8880 o          1 E8T      -0.620100
      7 C7         -22.6940   -37.1270    16.9400 ce         1 E8T      -0.297200
      8 C8         -22.3800   -38.0030    17.9000 c2         1 E8T      -0.127200
      9 C9         -25.8130   -36.6830    13.7070 c3         1 E8T      -0.104400
     10 C10        -25.3020   -35.6170    14.6780 c3         1 E8T       0.110000
     11 N11        -24.0720   -36.0020    15.3530 ns         1 E8T      -0.508900
     12 C12        -24.9210   -36.8710    12.4670 c3         1 E8T      -0.079400
     13 C13        -24.4600   -40.8840    14.8600 ce         1 E8T       0.354100
     14 C14        -23.3180   -40.7460    15.7300 ce         1 E8T      -0.246000
     15 C15        -25.8840   -40.1380    12.9720 c          1 E8T       0.591200
     16 C16        -24.6450   -40.0850    13.7480 cf         1 E8T      -0.494400
     17 N17        -25.8430   -39.1670    12.0410 ns         1 E8T      -0.488900
     18 C18        -24.6460   -38.3370    12.1120 c5         1 E8T       0.005700
     19 C19        -23.8250   -39.0230    13.2160 c          1 E8T       0.614300
     20 O20        -26.8180   -40.9430    13.1620 o          1 E8T      -0.615000
     21 O21        -22.7010   -38.6560    13.5280 o          1 E8T      -0.551100
     22 C22        -21.4830   -40.0720    20.0880 c5         1 E8T      -0.065700
     23 C23        -20.9480   -41.4290    20.5760 c5         1 E8T      -0.097700
     24 C24        -20.3690   -42.1820    19.3900 c6         1 E8T       0.183300
     25 C25        -21.4550   -42.3850    18.3390 c6         1 E8T      -0.069400
     26 C26        -21.7390   -39.3180    21.3900 c5         1 E8T      -0.066400
     27 C27        -20.4880   -39.6420    22.2230 c5         1 E8T      -0.069700
     28 C28        -20.0370   -41.0750    21.7670 c5         1 E8T      -0.061700
     29 C29        -20.6610   -39.7120    23.7490 c5         1 E8T      -0.069400
     30 C30        -19.8720   -40.9580    24.1760 c5         1 E8T      -0.062700
     31 C31        -20.1460   -41.9500    23.0310 c5         1 E8T      -0.058700
     32 O32        -19.8690   -43.4870    19.7180 oh         1 E8T      -0.665000
     33 C33        -19.2550   -43.1830    23.0540 c3         1 E8T      -0.087100
     34 C34        -20.1600   -41.4610    25.5940 c3         1 E8T      -0.064400
     35 O35        -25.3900   -41.7700    15.1850 oh         1 E8T      -0.537100
     36 C36        -21.5660   -42.0150    25.8260 c3         1 E8T      -0.090100
     37 HC1        -21.3520   -40.4620    17.3800 hc         1 E8T       0.058700
     38 HC2        -23.4130   -40.8310    19.5920 hc         1 E8T       0.057700
     39 HC3        -24.0040   -42.0040    17.2680 ha         1 E8T       0.191000
     40 HC4A       -23.6190   -38.3950    19.5680 hc         1 E8T       0.076700
     41 HC4B       -24.1860   -39.1090    18.0870 hc         1 E8T       0.076700
     42 HC7        -21.8900   -36.5530    16.4910 ha         1 E8T       0.176000
     43 HC8        -21.3270   -38.0570    18.1620 ha         1 E8T       0.166000
     44 HC9A       -26.8250   -36.4100    13.4000 hc         1 E8T       0.060200
     45 HC9B       -25.9090   -37.6150    14.2660 hc         1 E8T       0.060200
     46 H10A       -25.1090   -34.6800    14.1550 h1         1 E8T       0.053700
     47 H10B       -26.0590   -35.4270    15.4390 h1         1 E8T       0.053700
     48 HN11       -23.1950   -35.6870    14.9710 hn         1 E8T       0.315500
     49 H12B       -23.9430   -36.4090    12.6210 hc         1 E8T       0.051700
     50 H12A       -25.3650   -36.3770    11.6020 hc         1 E8T       0.051700
     51 HC14       -22.5610   -40.0540    15.3900 ha         1 E8T       0.218000
     52 HN17       -26.6160   -38.9790    11.4200 hn         1 E8T       0.336500
     53 HC18       -24.0860   -38.3890    11.1750 h1         1 E8T       0.080700
     54 HC22       -20.6550   -39.5670    19.5750 hc         1 E8T       0.045700
     55 HC23       -21.7980   -42.0120    20.9530 hc         1 E8T       0.063700
     56 HC24       -19.5510   -41.5870    18.9620 h1         1 E8T       0.029700
     57 H25B       -22.2200   -43.0430    18.7630 hc         1 E8T       0.059700
     58 H25A       -21.0300   -42.8960    17.4720 hc         1 E8T       0.059700
     59 H26B       -21.8880   -38.2460    21.2500 hc         1 E8T       0.048700
     60 H26A       -22.6340   -39.7190    21.8780 hc         1 E8T       0.048700
     61 HC27       -19.7070   -38.9220    21.9710 hc         1 E8T       0.048700
     62 HC28       -18.9910   -41.0470    21.4440 hc         1 E8T       0.045700
     63 H29B       -20.3160   -38.8100    24.2590 hc         1 E8T       0.045200
     64 H29A       -21.7180   -39.8390    23.9980 hc         1 E8T       0.045200
     65 HC30       -18.8040   -40.7050    24.1320 hc         1 E8T       0.043700
     66 HC31       -21.1900   -42.2730    23.1150 hc         1 E8T       0.053700
     67 HO32       -19.1000   -43.3800    20.2900 ho         1 E8T       0.444000
     68 H33C       -19.3220   -43.6990    24.0140 hc         1 E8T       0.035700
     69 H33B       -19.5420   -43.9000    22.2830 hc         1 E8T       0.035700
     70 H33A       -18.2090   -42.9060    22.8930 hc         1 E8T       0.035700
     71 H34B       -19.4290   -42.2330    25.8510 hc         1 E8T       0.038200
     72 H34A       -19.9800   -40.6350    26.2910 hc         1 E8T       0.038200
     73 HO35       -26.1260   -41.6890    14.5080 ho         1 E8T       0.541000
     74 H36C       -21.7020   -42.2880    26.8740 hc         1 E8T       0.032700
     75 H36A       -22.3370   -41.2850    25.5720 hc         1 E8T       0.032700
     76 H36B       -21.7470   -42.9100    25.2270 hc         1 E8T       0.032700
@<TRIPOS>BOND
     1     1     2 1   
     2     1     3 1   
     3     1    25 1   
     4     1    37 1   
     5     2     4 1   
     6     2    22 1   
     7     2    38 1   
     8     3    14 2   
     9     3    39 1   
    10     4     8 1   
    11     4    40 1   
    12     4    41 1   
    13     5     6 2   
    14     5     7 1   
    15     5    11 1   
    16     7     8 2   
    17     7    42 1   
    18     8    43 1   
    19     9    10 1   
    20     9    12 1   
    21     9    44 1   
    22     9    45 1   
    23    10    11 1   
    24    10    46 1   
    25    10    47 1   
    26    11    48 1   
    27    12    18 1   
    28    12    49 1   
    29    12    50 1   
    30    13    14 1   
    31    13    16 2   
    32    13    35 1   
    33    14    51 1   
    34    15    16 1   
    35    15    17 1   
    36    15    20 2   
    37    16    19 1   
    38    17    18 1   
    39    17    52 1   
    40    18    19 1   
    41    18    53 1   
    42    19    21 2   
    43    22    23 1   
    44    22    26 1   
    45    22    54 1   
    46    23    24 1   
    47    23    28 1   
    48    23    55 1   
    49    24    25 1   
    50    24    32 1   
    51    24    56 1   
    52    25    57 1   
    53    25    58 1   
    54    26    27 1   
    55    26    59 1   
    56    26    60 1   
    57    27    28 1   
    58    27    29 1   
    59    27    61 1   
    60    28    31 1   
    61    28    62 1   
    62    29    30 1   
    63    29    63 1   
    64    29    64 1   
    65    30    31 1   
    66    30    34 1   
    67    30    65 1   
    68    31    33 1   
    69    31    66 1   
    70    32    67 1   
    71    33    68 1   
    72    33    69 1   
    73    33    70 1   
    74    34    36 1   
    75    34    71 1   
    76    34    72 1   
    77    35    73 1   
    78    36    74 1   
    79    36    75 1   
    80    36    76 1   
@<TRIPOS>SUBSTRUCTURE
     1 E8T         1 TEMP              0 ****  ****    0 ROOT
