@<TRIPOS>MOLECULE
E8T
   76    80     1     0     0
SMALL
No Charge or Current Charge


@<TRIPOS>ATOM
      1 C1         -22.0510   -41.2070    17.8570 c6         1 E8T      -0.043500
      2 C2         -22.5910   -40.3610    19.0630 c6         1 E8T      -0.041700
      3 C3         -23.1450   -41.4530    16.8240 c2         1 E8T      -0.107200
      4 C4         -23.2640   -39.0180    18.6210 c3         1 E8T      -0.058200
      5 C6         -24.1950   -36.7790    16.5070 c          1 E8T       0.601300
      6 O5         -25.1980   -37.1890    17.0700 o          1 E8T      -0.620100
      7 C7         -22.7980   -37.1110    16.9220 ce         1 E8T      -0.297200
      8 C8         -22.4000   -38.0640    17.8050 c2         1 E8T      -0.127200
      9 C9         -25.9810   -36.5850    13.6840 c3         1 E8T      -0.104400
     10 C10        -25.5000   -35.5570    14.7310 c3         1 E8T       0.110000
     11 N11        -24.2600   -35.9780    15.3910 ns         1 E8T      -0.508900
     12 C12        -25.0500   -36.7100    12.4410 c3         1 E8T      -0.079400
     13 C13        -24.3530   -40.8110    14.7160 ce         1 E8T       0.354100
     14 C14        -23.2690   -40.7020    15.7030 ce         1 E8T      -0.246000
     15 C15        -25.7190   -40.0970    12.7750 c          1 E8T       0.591200
     16 C16        -24.5840   -39.9780    13.6690 cf         1 E8T      -0.494400
     17 N17        -25.7100   -39.0870    11.8690 ns         1 E8T      -0.488900
     18 C18        -24.5910   -38.1470    12.0760 c5         1 E8T       0.005700
     19 C19        -23.7940   -38.8090    13.2430 c          1 E8T       0.614300
     20 O20        -26.5630   -40.9730    12.8340 o          1 E8T      -0.615000
     21 O21        -22.7240   -38.4440    13.7070 o          1 E8T      -0.551100
     22 C22        -21.4490   -40.1850    20.1050 c5         1 E8T      -0.065700
     23 C23        -20.9130   -41.5560    20.6040 c5         1 E8T      -0.097700
     24 C24        -20.3320   -42.3640    19.4130 c6         1 E8T       0.183300
     25 C25        -21.4350   -42.5590    18.3340 c6         1 E8T      -0.069400
     26 C26        -21.7820   -39.5130    21.4600 c5         1 E8T      -0.066400
     27 C27        -20.3870   -39.6740    22.1410 c5         1 E8T      -0.069700
     28 C28        -19.9430   -41.1290    21.7710 c5         1 E8T      -0.061700
     29 C29        -20.5620   -39.6540    23.6960 c5         1 E8T      -0.069400
     30 C30        -19.7630   -40.9150    24.1390 c5         1 E8T      -0.062700
     31 C31        -20.2660   -41.9410    23.0750 c5         1 E8T      -0.058700
     32 O32        -19.8400   -43.6350    19.8350 oh         1 E8T      -0.665000
     33 C33        -19.6120   -43.3400    23.1570 c3         1 E8T      -0.087100
     34 C34        -19.9330   -41.3100    25.6340 c3         1 E8T      -0.064400
     35 O35        -25.2140   -41.8260    14.9280 oh         1 E8T      -0.537100
     36 C36        -21.3590   -41.6970    26.0860 c3         1 E8T      -0.090100
     37 HC1        -21.2430   -40.6400    17.3730 hc         1 E8T       0.058700
     38 HC2        -23.3930   -40.9370    19.5460 hc         1 E8T       0.057700
     39 HC3        -23.8640   -42.2400    17.0630 ha         1 E8T       0.191000
     40 HC4A       -23.6380   -38.4880    19.5050 hc         1 E8T       0.076700
     41 HC4B       -24.1650   -39.2700    18.0510 hc         1 E8T       0.076700
     42 HC7        -22.0290   -36.5440    16.4010 ha         1 E8T       0.176000
     43 HC8        -21.3300   -38.1900    17.9770 ha         1 E8T       0.166000
     44 HC9A       -26.9810   -36.2920    13.3430 hc         1 E8T       0.060200
     45 HC9B       -26.1080   -37.5540    14.1820 hc         1 E8T       0.060200
     46 H10A       -25.3330   -34.5860    14.2450 h1         1 E8T       0.053700
     47 H10B       -26.2810   -35.4180    15.4900 h1         1 E8T       0.053700
     48 HN11       -23.3780   -35.7020    14.9790 hn         1 E8T       0.315500
     49 H12B       -24.1590   -36.0870    12.5860 hc         1 E8T       0.051700
     50 H12A       -25.5670   -36.2720    11.5780 hc         1 E8T       0.051700
     51 HC14       -22.5390   -39.9180    15.5340 ha         1 E8T       0.218000
     52 HN17       -26.4500   -39.0240    11.1780 hn         1 E8T       0.336500
     53 HC18       -23.9300   -38.1100    11.2000 h1         1 E8T       0.080700
     54 HC22       -20.6560   -39.6290    19.5900 hc         1 E8T       0.045700
     55 HC23       -21.7450   -42.1640    20.9820 hc         1 E8T       0.063700
     56 HC24       -19.5100   -41.7840    18.9670 h1         1 E8T       0.029700
     57 H25B       -22.2280   -43.2050    18.7350 hc         1 E8T       0.059700
     58 H25A       -21.0110   -43.0920    17.4720 hc         1 E8T       0.059700
     59 H26B       -22.0700   -38.4610    21.3580 hc         1 E8T       0.048700
     60 H26A       -22.5930   -40.0370    21.9820 hc         1 E8T       0.048700
     61 HC27       -19.6620   -38.9300    21.7900 hc         1 E8T       0.048700
     62 HC28       -18.8830   -41.1660    21.4910 hc         1 E8T       0.045700
     63 H29B       -20.1570   -38.7370    24.1390 hc         1 E8T       0.045200
     64 H29A       -21.6120   -39.7120    24.0010 hc         1 E8T       0.045200
     65 HC30       -18.6870   -40.7370    24.0100 hc         1 E8T       0.043700
     66 HC31       -21.3450   -42.1000    23.1930 hc         1 E8T       0.053700
     67 HO32       -19.2990   -43.4620    20.6340 ho         1 E8T       0.444000
     68 H33C       -19.7580   -43.7880    24.1470 hc         1 E8T       0.035700
     69 H33B       -20.0570   -44.0300    22.4330 hc         1 E8T       0.035700
     70 H33A       -18.5330   -43.2890    22.9700 hc         1 E8T       0.035700
     71 H34B       -19.2640   -42.1470    25.8660 hc         1 E8T       0.038200
     72 H34A       -19.5920   -40.4780    26.2620 hc         1 E8T       0.038200
     73 HO35       -25.8700   -41.7090    14.1930 ho         1 E8T       0.541000
     74 H36C       -21.3560   -41.9680    27.1490 hc         1 E8T       0.032700
     75 H36A       -22.0590   -40.8640    25.9550 hc         1 E8T       0.032700
     76 H36B       -21.7330   -42.5600    25.5220 hc         1 E8T       0.032700
@<TRIPOS>BOND
     1     1     2 1   
     2     1     3 1   
     3     1    25 1   
     4     1    37 1   
     5     2     4 1   
     6     2    22 1   
     7     2    38 1   
     8     3    14 2   
     9     3    39 1   
    10     4     8 1   
    11     4    40 1   
    12     4    41 1   
    13     5     6 2   
    14     5     7 1   
    15     5    11 1   
    16     7     8 2   
    17     7    42 1   
    18     8    43 1   
    19     9    10 1   
    20     9    12 1   
    21     9    44 1   
    22     9    45 1   
    23    10    11 1   
    24    10    46 1   
    25    10    47 1   
    26    11    48 1   
    27    12    18 1   
    28    12    49 1   
    29    12    50 1   
    30    13    14 1   
    31    13    16 2   
    32    13    35 1   
    33    14    51 1   
    34    15    16 1   
    35    15    17 1   
    36    15    20 2   
    37    16    19 1   
    38    17    18 1   
    39    17    52 1   
    40    18    19 1   
    41    18    53 1   
    42    19    21 2   
    43    22    23 1   
    44    22    26 1   
    45    22    54 1   
    46    23    24 1   
    47    23    28 1   
    48    23    55 1   
    49    24    25 1   
    50    24    32 1   
    51    24    56 1   
    52    25    57 1   
    53    25    58 1   
    54    26    27 1   
    55    26    59 1   
    56    26    60 1   
    57    27    28 1   
    58    27    29 1   
    59    27    61 1   
    60    28    31 1   
    61    28    62 1   
    62    29    30 1   
    63    29    63 1   
    64    29    64 1   
    65    30    31 1   
    66    30    34 1   
    67    30    65 1   
    68    31    33 1   
    69    31    66 1   
    70    32    67 1   
    71    33    68 1   
    72    33    69 1   
    73    33    70 1   
    74    34    36 1   
    75    34    71 1   
    76    34    72 1   
    77    35    73 1   
    78    36    74 1   
    79    36    75 1   
    80    36    76 1   
@<TRIPOS>SUBSTRUCTURE
     1 E8T         1 TEMP              0 ****  ****    0 ROOT
