@<TRIPOS>MOLECULE
E8U
   21    20     1     0     0
SMALL
No Charge or Current Charge


@<TRIPOS>ATOM
      1 OAC         -0.2530    -0.7260     1.2020 oh         1 E8U      -0.663000
      2 CAM          0.0820    -0.3060    -0.1220 c3         1 E8U       0.163300
      3 CAF          1.4710     0.3800    -0.1080 c3         1 E8U      -0.088400
      4 CAK          2.6410    -0.5490     0.3210 c3         1 E8U      -0.199400
      5 CAI          3.9870     0.1870     0.1810 c          1 E8U       0.713000
      6 OAD          4.3940     0.8340     1.1340 o          1 E8U      -0.756500
      7 OAA          4.5670     0.1310    -0.8930 o          1 E8U      -0.756500
      8 CAG         -1.0290     0.6260    -0.6370 c3         1 E8U      -0.217400
      9 CAL         -2.3760    -0.1160    -0.7120 c          1 E8U       0.437100
     10 CAJ         -3.4200     0.0960     0.5130 c          1 E8U       0.643000
     11 OAE         -3.5580     1.2250     0.9830 o          1 E8U      -0.715000
     12 OAB         -4.0950    -0.8630     0.8830 o          1 E8U      -0.715000
     13 O10         -2.6350    -0.8320    -1.6840 o          1 E8U      -0.564100
     14 HAC          0.5560    -1.1370     1.5740 ho         1 E8U       0.420000
     15 HAM          0.1400    -1.1780    -0.7910 h1         1 E8U       0.064700
     16 HAF1         1.6800     0.7600    -1.1160 hc         1 E8U       0.038200
     17 HAF2         1.4410     1.2550     0.5540 hc         1 E8U       0.038200
     18 HAG1        -1.1060     1.4720     0.0540 hc         1 E8U       0.060700
     19 HAG2        -0.7570     0.9770    -1.6400 hc         1 E8U       0.060700
     20 HAK1         2.4620    -0.8090     1.3710 hc         1 E8U       0.020200
     21 HAK2         2.6060    -1.4080    -0.3600 hc         1 E8U       0.020200
@<TRIPOS>BOND
     1     1     2 1   
     2     1    14 1   
     3     2     3 1   
     4     2     8 1   
     5     2    15 1   
     6     3     4 1   
     7     3    16 1   
     8     3    17 1   
     9     4     5 1   
    10     4    20 1   
    11     4    21 1   
    12     5     6 1   
    13     5     7 1   
    14     8     9 1   
    15     8    18 1   
    16     8    19 1   
    17     9    10 1   
    18     9    13 2   
    19    10    11 1   
    20    10    12 1   
@<TRIPOS>SUBSTRUCTURE
     1 E8U         1 TEMP              0 ****  ****    0 ROOT
