@<TRIPOS>MOLECULE
E8U
   21    20     1     0     0
SMALL
abcg2


@<TRIPOS>ATOM
      1 OAC          0.1280    -1.4730     0.9140 oh         1 E8U      -0.663000
      2 CAM          0.1890    -0.4720    -0.0870 c3         1 E8U       0.163300
      3 CAF          1.4680     0.3540     0.0040 c3         1 E8U      -0.088400
      4 CAK          2.7360    -0.4760    -0.1060 c3         1 E8U      -0.199400
      5 CAI          4.0570     0.3120    -0.0540 c          1 E8U       0.713000
      6 OAD          4.0000     1.5370     0.1720 o          1 E8U      -0.756500
      7 OAA          5.0980    -0.3550    -0.2390 o          1 E8U      -0.756500
      8 CAG         -1.0400     0.4250    -0.0320 c3         1 E8U      -0.217400
      9 CAL         -2.3480    -0.2820    -0.2810 c          1 E8U       0.437100
     10 CAJ         -3.6500     0.4770     0.0940 c          1 E8U       0.643000
     11 OAE         -3.5270     1.7070     0.2280 o          1 E8U      -0.715000
     12 OAB         -4.6690    -0.2190     0.2060 o          1 E8U      -0.715000
     13 O10         -2.4030    -1.3760    -0.7920 o          1 E8U      -0.564100
     14 HAC          0.2120    -1.0390     1.7700 ho         1 E8U       0.420000
     15 HAM          0.1930    -1.0150    -1.0380 h1         1 E8U       0.064700
     16 HAF1         1.4490     1.1040    -0.7910 hc         1 E8U       0.038200
     17 HAF2         1.4670     0.9180     0.9440 hc         1 E8U       0.038200
     18 HAG1        -1.0830     0.9540     0.9250 hc         1 E8U       0.060700
     19 HAG2        -0.9600     1.2190    -0.7840 hc         1 E8U       0.060700
     20 HAK1         2.7630    -1.2270     0.6910 hc         1 E8U       0.020200
     21 HAK2         2.7190    -1.0540    -1.0380 hc         1 E8U       0.020200
@<TRIPOS>BOND
     1     1     2 1   
     2     1    14 1   
     3     2     3 1   
     4     2     8 1   
     5     2    15 1   
     6     3     4 1   
     7     3    16 1   
     8     3    17 1   
     9     4     5 1   
    10     4    20 1   
    11     4    21 1   
    12     5     6 1   
    13     5     7 1   
    14     8     9 1   
    15     8    18 1   
    16     8    19 1   
    17     9    10 1   
    18     9    13 2   
    19    10    11 1   
    20    10    12 1   
@<TRIPOS>SUBSTRUCTURE
     1 E8U         1 TEMP              0 ****  ****    0 ROOT
