@<TRIPOS>MOLECULE
E8V
   35    37     1     0     0
SMALL
No Charge or Current Charge


@<TRIPOS>ATOM
      1 C4          -1.2730    -1.0210    -0.0050 cp         1 E8V      -0.150000
      2 C14         -3.9500     1.6110     0.7660 ca         1 E8V       0.131500
      3 C5          -0.0440    -0.3210    -0.0520 ca         1 E8V      -0.010000
      4 C6           2.4800    -0.2890    -0.1420 cp         1 E8V      -0.017000
      5 C11          3.8670     1.5080    -1.0810 ca         1 E8V       0.127000
      6 C7          -2.5860    -0.3040     0.0450 cp         1 E8V       0.001000
      7 C8           3.5590    -0.6300     0.7110 ca         1 E8V      -0.123000
      8 C9           4.7700     0.0800     0.6640 ca         1 E8V       0.127000
      9 C10          4.9390     1.1550    -0.2330 ca         1 E8V       0.070100
     10 C12          2.6560     0.7970    -1.0330 ca         1 E8V      -0.123000
     11 C13         -2.7190     0.9370     0.7180 ca         1 E8V      -0.126000
     12 N1          -0.0450    -3.1390    -0.0510 nb         1 E8V      -0.747000
     13 C3          -1.2010    -2.4380    -0.0060 ca         1 E8V       0.409900
     14 C1           1.1790    -1.0270    -0.0900 cp         1 E8V      -0.160000
     15 C2           1.0800    -2.4400    -0.0860 ca         1 E8V       0.619900
     16 C15         -5.0910     1.0660     0.1410 ca         1 E8V       0.066100
     17 C16         -4.9710    -0.1680    -0.5310 ca         1 E8V       0.131500
     18 C17         -3.7400    -0.8420    -0.5770 ca         1 E8V      -0.126000
     19 F1           5.7770    -0.2740     1.4950 f          1 E8V      -0.168500
     20 O1           6.1260     1.8490    -0.2770 oh         1 E8V      -0.505100
     21 F2           3.9940     2.5360    -1.9520 f          1 E8V      -0.168500
     22 F3          -6.0480    -0.7140    -1.1420 f          1 E8V      -0.170000
     23 O2          -6.2990     1.7240     0.1850 oh         1 E8V      -0.505100
     24 F4          -4.0300     2.7920     1.4240 f          1 E8V      -0.170000
     25 H1          -0.0350     0.7670    -0.0610 ha         1 E8V       0.123000
     26 H2           3.4520    -1.4410     1.4260 ha         1 E8V       0.145500
     27 H3           1.8490     1.0870    -1.7000 ha         1 E8V       0.145500
     28 H4          -1.8640     1.3790     1.2230 ha         1 E8V       0.139000
     29 H5           2.9570    -2.9190    -0.6050 hn         1 E8V       0.479000
     30 H6           1.8620    -4.2330    -0.4160 hn         1 E8V       0.479000
     31 H7          -2.1100    -3.0370     0.0380 h4         1 E8V       0.023100
     32 H8          -3.6830    -1.7840    -1.1160 ha         1 E8V       0.139000
     33 H9           6.7410     1.4600     0.3840 ho         1 E8V       0.482000
     34 H10         -6.9650     1.1900    -0.3020 ho         1 E8V       0.480000
     35 N2           2.1140    -3.2820    -0.1780 nv         1 E8V      -1.050900
@<TRIPOS>BOND
     1     1     3 ar  
     2     1     6 1   
     3     1    13 ar  
     4     2    11 ar  
     5     2    16 ar  
     6     2    24 1   
     7     3    14 ar  
     8     3    25 1   
     9     4     7 ar  
    10     4    10 ar  
    11     4    14 1   
    12     5     9 ar  
    13     5    10 ar  
    14     5    21 1   
    15     6    11 ar  
    16     6    18 ar  
    17     7     8 ar  
    18     7    26 1   
    19     8     9 ar  
    20     8    19 1   
    21     9    20 1   
    22    10    27 1   
    23    11    28 1   
    24    12    13 ar  
    25    12    15 ar  
    26    13    31 1   
    27    14    15 ar  
    28    15    35 1   
    29    16    17 ar  
    30    16    23 1   
    31    17    18 ar  
    32    17    22 1   
    33    18    32 1   
    34    20    33 1   
    35    23    34 1   
    36    29    35 1   
    37    30    35 1   
@<TRIPOS>SUBSTRUCTURE
     1 E8V         1 TEMP              0 ****  ****    0 ROOT
