@<TRIPOS>MOLECULE
E8V
   35    37     1     0     0
SMALL
bcc


@<TRIPOS>ATOM
      1 C4          -1.2750    -1.0260    -0.0080 cp         1 E8V      -0.215300
      2 C14         -3.8900     1.5410     0.7980 ca         1 E8V       0.096400
      3 C5          -0.0500    -0.3580    -0.0440 ca         1 E8V      -0.028000
      4 C6           2.4280    -0.3190    -0.1440 cp         1 E8V      -0.017000
      5 C11          3.8040     1.3980    -1.1010 ca         1 E8V       0.091900
      6 C7          -2.5580    -0.3100     0.0480 cp         1 E8V       0.001000
      7 C8           3.4540    -0.6050     0.7550 ca         1 E8V      -0.141000
      8 C9           4.6260     0.1170     0.6980 ca         1 E8V       0.091900
      9 C10          4.8480     1.1340    -0.2230 ca         1 E8V       0.070100
     10 C12          2.6180     0.6980    -1.0790 ca         1 E8V      -0.141000
     11 C13         -2.6810     0.8830     0.7600 ca         1 E8V      -0.144000
     12 N1          -0.0850    -3.1060    -0.0840 nb         1 E8V      -0.747000
     13 C3          -1.2110    -2.4130    -0.0180 ca         1 E8V       0.475200
     14 C1           1.1460    -1.0480    -0.0960 cp         1 E8V      -0.225300
     15 C2           1.0780    -2.4620    -0.1330 ca         1 E8V       0.685200
     16 C15         -5.0270     1.0650     0.1530 ca         1 E8V       0.066100
     17 C16         -4.8730    -0.1270    -0.5430 ca         1 E8V       0.096400
     18 C17         -3.6790    -0.8100    -0.6130 ca         1 E8V      -0.144000
     19 F1           5.6160    -0.1520     1.5660 f          1 E8V      -0.133400
     20 O1           5.9760     1.8520    -0.3110 oh         1 E8V      -0.466100
     21 F2           3.9860     2.3680    -2.0060 f          1 E8V      -0.133400
     22 F3          -5.9530    -0.6060    -1.1840 f          1 E8V      -0.134900
     23 O2          -6.1720     1.7580     0.2400 oh         1 E8V      -0.466100
     24 F4          -4.0060     2.6810     1.4900 f          1 E8V      -0.134900
     25 H1          -0.0250     0.7250    -0.0340 ha         1 E8V       0.141000
     26 H2           3.3450    -1.3730     1.5090 ha         1 E8V       0.163500
     27 H3           1.8500     0.9370    -1.8020 ha         1 E8V       0.163500
     28 H4          -1.8450     1.2980     1.3090 ha         1 E8V       0.157000
     29 H5           3.0390    -2.8310    -0.5700 hn         1 E8V       0.423800
     30 H6           2.0490    -4.1980    -0.4440 hn         1 E8V       0.423800
     31 H7          -2.1210    -3.0020     0.0430 h4         1 E8V       0.023100
     32 H8          -3.6290    -1.7170    -1.2020 ha         1 E8V       0.157000
     33 H9           6.6350     1.5430     0.3210 ho         1 E8V       0.443000
     34 H10         -6.8700     1.3330    -0.2740 ho         1 E8V       0.441000
     35 N2           2.1970    -3.2340    -0.1940 nv         1 E8V      -0.940500
@<TRIPOS>BOND
     1     1     3 ar  
     2     1     6 1   
     3     1    13 ar  
     4     2    11 ar  
     5     2    16 ar  
     6     2    24 1   
     7     3    14 ar  
     8     3    25 1   
     9     4     7 ar  
    10     4    10 ar  
    11     4    14 1   
    12     5     9 ar  
    13     5    10 ar  
    14     5    21 1   
    15     6    11 ar  
    16     6    18 ar  
    17     7     8 ar  
    18     7    26 1   
    19     8     9 ar  
    20     8    19 1   
    21     9    20 1   
    22    10    27 1   
    23    11    28 1   
    24    12    13 ar  
    25    12    15 ar  
    26    13    31 1   
    27    14    15 ar  
    28    15    35 1   
    29    16    17 ar  
    30    16    23 1   
    31    17    18 ar  
    32    17    22 1   
    33    18    32 1   
    34    20    33 1   
    35    23    34 1   
    36    29    35 1   
    37    30    35 1   
@<TRIPOS>SUBSTRUCTURE
     1 E8V         1 TEMP              0 ****  ****    0 ROOT
