@<TRIPOS>MOLECULE
E8W
   22    21     1     0     0
SMALL
No Charge or Current Charge


@<TRIPOS>ATOM
      1 CAC         20.1110    -0.4280    -2.1280 c3         1 E8W      -0.107100
      2 CAM         18.5850    -0.2580    -2.2840 c3         1 E8W       0.241300
      3 CAD         17.9830     0.6570    -1.2020 c3         1 E8W      -0.107100
      4 OAL         17.9120    -1.5210    -2.1610 os         1 E8W      -0.642400
      5 PAO         18.1230    -2.7490    -3.1920 p5         1 E8W       1.364800
      6 CAE         16.4990    -3.5620    -3.1000 c3         1 E8W      -0.477100
      7 OAF         18.5390    -2.4090    -4.5810 o          1 E8W      -0.588000
      8 OAK         19.0470    -3.7930    -2.3740 os         1 E8W      -0.601400
      9 CAI         20.4790    -3.7640    -2.4700 c3         1 E8W       0.200900
     10 H1          20.5940     0.5540    -2.0690 hc         1 E8W       0.048867
     11 H2          20.3520    -0.9770    -1.2110 hc         1 E8W       0.048867
     12 H3          20.5440    -0.9470    -2.9900 hc         1 E8W       0.048867
     13 H4          18.3800     0.1910    -3.2650 h1         1 E8W       0.041700
     14 H5          16.9010     0.7550    -1.3420 hc         1 E8W       0.048867
     15 H6          18.1700     0.2510    -0.2010 hc         1 E8W       0.048867
     16 H7          18.4250     1.6590    -1.2570 hc         1 E8W       0.048867
     17 H8          16.2690    -3.7730    -2.0510 hc         1 E8W       0.083033
     18 H9          15.7440    -2.8910    -3.5220 hc         1 E8W       0.083033
     19 H10         16.5360    -4.4940    -3.6720 hc         1 E8W       0.083033
     20 H11         20.8800    -4.7850    -2.4420 h1         1 E8W       0.044367
     21 H12         20.8170    -3.2980    -3.4050 h1         1 E8W       0.044367
     22 H13         20.9140    -3.2120    -1.6280 h1         1 E8W       0.044367
@<TRIPOS>BOND
     1     1     2 1   
     2     1    10 1   
     3     1    11 1   
     4     1    12 1   
     5     2     3 1   
     6     2     4 1   
     7     2    13 1   
     8     3    14 1   
     9     3    15 1   
    10     3    16 1   
    11     4     5 1   
    12     5     6 1   
    13     5     7 2   
    14     5     8 1   
    15     6    17 1   
    16     6    18 1   
    17     6    19 1   
    18     8     9 1   
    19     9    20 1   
    20     9    21 1   
    21     9    22 1   
@<TRIPOS>SUBSTRUCTURE
     1 E8W         1 TEMP              0 ****  ****    0 ROOT
