@<TRIPOS>MOLECULE
E8W
   22    21     1     0     0
SMALL
abcg2


@<TRIPOS>ATOM
      1 CAC         20.0750     0.1410    -2.3830 c3         1 E8W      -0.107100
      2 CAM         18.6310    -0.3040    -2.2680 c3         1 E8W       0.241300
      3 CAD         17.8730     0.3760    -1.1460 c3         1 E8W      -0.107100
      4 OAL         18.6090    -1.7410    -1.9860 os         1 E8W      -0.642400
      5 PAO         18.3390    -2.8220    -3.1250 p5         1 E8W       1.364800
      6 CAE         16.5910    -3.1950    -3.0890 c3         1 E8W      -0.477100
      7 OAF         18.8640    -2.4390    -4.4560 o          1 E8W      -0.588000
      8 OAK         18.9750    -4.1340    -2.4870 os         1 E8W      -0.601400
      9 CAI         20.4070    -4.2590    -2.3530 c3         1 E8W       0.200900
     10 H1          20.1180     1.2120    -2.5890 hc         1 E8W       0.048867
     11 H2          20.6070    -0.0550    -1.4500 hc         1 E8W       0.048867
     12 H3          20.5760    -0.3880    -3.1930 hc         1 E8W       0.048867
     13 H4          18.1150    -0.1390    -3.2160 h1         1 E8W       0.041700
     14 H5          16.8460     0.0120    -1.0980 hc         1 E8W       0.048867
     15 H6          18.3600     0.1850    -0.1870 hc         1 E8W       0.048867
     16 H7          17.8520     1.4540    -1.3140 hc         1 E8W       0.048867
     17 H8          16.2840    -3.4850    -2.0850 hc         1 E8W       0.083033
     18 H9          16.0440    -2.3000    -3.3900 hc         1 E8W       0.083033
     19 H10         16.3730    -4.0000    -3.7910 hc         1 E8W       0.083033
     20 H11         20.5900    -5.2470    -1.9380 h1         1 E8W       0.044367
     21 H12         20.8870    -4.1700    -3.3270 h1         1 E8W       0.044367
     22 H13         20.7890    -3.4950    -1.6760 h1         1 E8W       0.044367
@<TRIPOS>BOND
     1     1     2 1   
     2     1    10 1   
     3     1    11 1   
     4     1    12 1   
     5     2     3 1   
     6     2     4 1   
     7     2    13 1   
     8     3    14 1   
     9     3    15 1   
    10     3    16 1   
    11     4     5 1   
    12     5     6 1   
    13     5     7 2   
    14     5     8 1   
    15     6    17 1   
    16     6    18 1   
    17     6    19 1   
    18     8     9 1   
    19     9    20 1   
    20     9    21 1   
    21     9    22 1   
@<TRIPOS>SUBSTRUCTURE
     1 E8W         1 TEMP              0 ****  ****    0 ROOT
