@<TRIPOS>MOLECULE
E8X
   39    39     1     0     0
SMALL
bcc


@<TRIPOS>ATOM
      1 C6         -33.3660    33.8550   -31.3460 c          1 E8X       0.945600
      2 C5         -33.6710    34.5600   -30.0050 c6         1 E8X      -0.220700
      3 C4         -33.9000    33.5350   -28.9020 c6         1 E8X       0.173100
      4 O4         -32.7410    32.7350   -28.7930 oh         1 E8X      -0.574800
      5 C3         -34.2320    34.2240   -27.5880 c6         1 E8X       0.055100
      6 O3         -34.4850    33.2170   -26.6260 oh         1 E8X      -0.607800
      7 C2         -35.4390    35.1380   -27.7870 c6         1 E8X       0.135800
      8 C7         -34.8960    35.4880   -30.1190 c6         1 E8X       0.177500
      9 C8         -34.6950    36.5730   -31.1740 c3         1 E8X      -0.065400
     10 C9         -35.9050    37.4750   -31.3830 c3         1 E8X      -0.069400
     11 N          -35.2580    36.1060   -28.8470 n7         1 E8X      -0.811200
     12 O61        -34.2310    33.0500   -31.7520 o          1 E8X      -0.832800
     13 O62        -32.3020    34.1550   -31.9220 o          1 E8X      -0.832800
     14 C10        -35.7230    38.4550   -32.5360 c3         1 E8X      -0.077400
     15 C11        -36.9200    39.3820   -32.7130 c3         1 E8X      -0.074400
     16 C12        -36.7690    40.4030   -33.8380 c3         1 E8X      -0.071400
     17 C13        -36.7070    39.7860   -35.2300 c3         1 E8X      -0.088100
     18 H1         -32.8120    35.1840   -29.7220 hc         1 E8X       0.040700
     19 H2         -34.7690    32.9170   -29.1830 h1         1 E8X       0.056700
     20 H3         -32.8890    32.0980   -28.0860 ho         1 E8X       0.387000
     21 H4         -33.3670    34.8370   -27.2880 h1         1 E8X       0.028700
     22 H5         -34.5340    33.6290   -25.7580 ho         1 E8X       0.386000
     23 H6         -35.6670    35.6670   -26.8560 h1         1 E8X       0.039200
     24 H7         -36.3140    34.5210   -28.0200 h1         1 E8X       0.039200
     25 H8         -35.7530    34.8740   -30.4260 h1         1 E8X       0.072700
     26 H9         -34.4430    36.0990   -32.1260 hc         1 E8X       0.052200
     27 H10        -33.8230    37.1820   -30.9020 hc         1 E8X       0.052200
     28 H11        -36.1200    38.0320   -30.4670 hc         1 E8X       0.034700
     29 H12        -36.7880    36.8540   -31.5730 hc         1 E8X       0.034700
     30 H13        -34.5310    36.7640   -28.5830 hn         1 E8X       0.335800
     31 H16        -35.5400    37.8930   -33.4570 hc         1 E8X       0.037200
     32 H17        -34.8240    39.0590   -32.3660 hc         1 E8X       0.037200
     33 H18        -37.0910    39.9150   -31.7720 hc         1 E8X       0.032200
     34 H19        -37.8200    38.7830   -32.8880 hc         1 E8X       0.032200
     35 H20        -35.8710    41.0050   -33.6630 hc         1 E8X       0.027200
     36 H21        -37.6110    41.1000   -33.7950 hc         1 E8X       0.027200
     37 H22        -36.6450    40.5560   -36.0010 hc         1 E8X       0.029367
     38 H23        -35.8410    39.1350   -35.3500 hc         1 E8X       0.029367
     39 H24        -37.5980    39.1880   -35.4320 hc         1 E8X       0.029367
@<TRIPOS>BOND
     1     1     2 1   
     2     1    12 1   
     3     1    13 1   
     4     2     3 1   
     5     2     8 1   
     6     2    18 1   
     7     3     4 1   
     8     3     5 1   
     9     3    19 1   
    10     4    20 1   
    11     5     6 1   
    12     5     7 1   
    13     5    21 1   
    14     6    22 1   
    15     7    11 1   
    16     7    23 1   
    17     7    24 1   
    18     8     9 1   
    19     8    11 1   
    20     8    25 1   
    21     9    10 1   
    22     9    26 1   
    23     9    27 1   
    24    10    14 1   
    25    10    28 1   
    26    10    29 1   
    27    11    30 1   
    28    14    15 1   
    29    14    31 1   
    30    14    32 1   
    31    15    16 1   
    32    15    33 1   
    33    15    34 1   
    34    16    17 1   
    35    16    35 1   
    36    16    36 1   
    37    17    37 1   
    38    17    38 1   
    39    17    39 1   
@<TRIPOS>SUBSTRUCTURE
     1 E8X         1 TEMP              0 ****  ****    0 ROOT
