@<TRIPOS>MOLECULE
E8X
   39    39     1     0     0
SMALL
No Charge or Current Charge


@<TRIPOS>ATOM
      1 C6         -33.4280    33.7620   -31.3590 c          1 E8X       0.735000
      2 C5         -33.6810    34.4850   -30.0260 c6         1 E8X      -0.220700
      3 C4         -33.8700    33.4580   -28.8810 c6         1 E8X       0.196300
      4 O4         -32.7020    32.6450   -28.7230 oh         1 E8X      -0.637000
      5 C3         -34.1690    34.1750   -27.5320 c6         1 E8X       0.078300
      6 O3         -34.3940    33.2110   -26.4830 oh         1 E8X      -0.670000
      7 C2         -35.3930    35.1150   -27.7110 c6         1 E8X       0.135800
      8 C7         -34.9120    35.4330   -30.1230 c6         1 E8X       0.177500
      9 C8         -34.7370    36.5380   -31.2130 c3         1 E8X      -0.065400
     10 C9         -35.9750    37.4430   -31.4330 c3         1 E8X      -0.069400
     11 N          -35.1690    36.0820   -28.8120 n7         1 E8X      -0.866400
     12 O61        -34.3160    33.0520   -31.8120 o          1 E8X      -0.727500
     13 O62        -32.3700    33.9710   -31.9360 o          1 E8X      -0.727500
     14 C10        -35.7740    38.4780   -32.5630 c3         1 E8X      -0.077400
     15 C11        -37.0130    39.3780   -32.7830 c3         1 E8X      -0.074400
     16 C12        -36.8210    40.4780   -33.8550 c3         1 E8X      -0.071400
     17 C13        -36.6160    39.9450   -35.2880 c3         1 E8X      -0.088100
     18 H1         -32.7920    35.0900   -29.8030 hc         1 E8X       0.040700
     19 H2         -34.7350    32.8220   -29.1240 h1         1 E8X       0.056700
     20 H3         -32.7780    32.2920   -27.8090 ho         1 E8X       0.426000
     21 H4         -33.3010    34.7980   -27.2720 h1         1 E8X       0.028700
     22 H5         -34.5370    33.7170   -25.6530 ho         1 E8X       0.425000
     23 H6         -35.5760    35.6660   -26.7770 h1         1 E8X       0.039200
     24 H7         -36.2920    34.5170   -27.9280 h1         1 E8X       0.039200
     25 H8         -35.7940    34.8320   -30.4000 h1         1 E8X       0.072700
     26 H9         -34.4990    36.0690   -32.1740 hc         1 E8X       0.052200
     27 H10        -33.8760    37.1700   -30.9630 hc         1 E8X       0.052200
     28 H11        -36.2120    37.9750   -30.5040 hc         1 E8X       0.034700
     29 H12        -36.8410    36.8130   -31.6720 hc         1 E8X       0.034700
     30 H13        -34.3570    36.6630   -28.5780 hn         1 E8X       0.391000
     31 H16        -35.5390    37.9450   -33.4920 hc         1 E8X       0.037200
     32 H17        -34.9080    39.1080   -32.3250 hc         1 E8X       0.037200
     33 H18        -37.2680    39.8640   -31.8330 hc         1 E8X       0.032200
     34 H19        -37.8720    38.7540   -33.0570 hc         1 E8X       0.032200
     35 H20        -35.9680    41.1110   -33.5790 hc         1 E8X       0.027200
     36 H21        -37.7060    41.1260   -33.8490 hc         1 E8X       0.027200
     37 H22        -36.5730    40.7770   -36.0000 hc         1 E8X       0.029367
     38 H23        -35.6790    39.3820   -35.3710 hc         1 E8X       0.029367
     39 H24        -37.4440    39.2880   -35.5800 hc         1 E8X       0.029367
@<TRIPOS>BOND
     1     1     2 1   
     2     1    12 1   
     3     1    13 1   
     4     2     3 1   
     5     2     8 1   
     6     2    18 1   
     7     3     4 1   
     8     3     5 1   
     9     3    19 1   
    10     4    20 1   
    11     5     6 1   
    12     5     7 1   
    13     5    21 1   
    14     6    22 1   
    15     7    11 1   
    16     7    23 1   
    17     7    24 1   
    18     8     9 1   
    19     8    11 1   
    20     8    25 1   
    21     9    10 1   
    22     9    26 1   
    23     9    27 1   
    24    10    14 1   
    25    10    28 1   
    26    10    29 1   
    27    11    30 1   
    28    14    15 1   
    29    14    31 1   
    30    14    32 1   
    31    15    16 1   
    32    15    33 1   
    33    15    34 1   
    34    16    17 1   
    35    16    35 1   
    36    16    36 1   
    37    17    37 1   
    38    17    38 1   
    39    17    39 1   
@<TRIPOS>SUBSTRUCTURE
     1 E8X         1 TEMP              0 ****  ****    0 ROOT
