@<TRIPOS>MOLECULE
E8Y
   34    36     1     0     0
SMALL
No Charge or Current Charge


@<TRIPOS>ATOM
      1 N1          27.4300     8.4680    21.0270 n3         1 E8Y      -0.658200
      2 C4          29.0290    13.2690    18.2840 ca         1 E8Y       0.321000
      3 C5          29.7280    13.2980    17.0650 ca         1 E8Y      -0.134000
      4 C6          30.4740    14.4360    16.6800 ca         1 E8Y      -0.154300
      5 C7          31.2150    14.4640    15.3360 c3         1 E8Y       0.354300
      6 C8          30.5030    15.5530    17.5430 ca         1 E8Y      -0.101000
      7 C10         29.0900    14.3810    19.1420 ca         1 E8Y      -0.141000
      8 C13         25.0620    11.3510    21.2340 ca         1 E8Y      -0.117000
      9 C15         26.0600     8.9390    21.4280 c5         1 E8Y       0.295100
     10 N           28.1470     6.0970    21.2220 n1         1 E8Y      -0.510000
     11 C           27.8300     7.2120    21.1490 c1         1 E8Y       0.454800
     12 C1          27.9270     9.3900    19.9510 c5         1 E8Y       0.301100
     13 C11         26.2970    12.8830    19.7860 ca         1 E8Y      -0.152000
     14 C12         25.2110    12.6240    20.6500 ca         1 E8Y      -0.074000
     15 C14         26.0090    10.3610    20.9330 ca         1 E8Y      -0.068300
     16 C2          27.0680    10.6180    20.0880 ca         1 E8Y      -0.154300
     17 C3          27.2480    11.8810    19.5030 ca         1 E8Y       0.335000
     18 C9          29.8190    15.5220    18.7700 ca         1 E8Y      -0.078000
     19 F           30.4100    14.8950    14.3400 f          1 E8Y      -0.113333
     20 F1          31.6690    13.2410    14.9760 f          1 E8Y      -0.113333
     21 F2          32.2920    15.2830    15.3560 f          1 E8Y      -0.113333
     22 N2          28.3190    12.1170    18.6340 nu         1 E8Y      -0.999000
     23 H1          29.6810    12.4340    16.4080 ha         1 E8Y       0.129000
     24 H2          31.0570    16.4490    17.2690 ha         1 E8Y       0.132000
     25 H3          28.5860    14.3600    20.1030 ha         1 E8Y       0.128000
     26 H4          24.2280    11.1410    21.9010 ha         1 E8Y       0.124000
     27 H5          25.9120     8.8860    22.5150 h1         1 E8Y       0.062700
     28 H6          25.2720     8.3440    20.9460 h1         1 E8Y       0.062700
     29 H9          27.7960     8.9470    18.9530 h1         1 E8Y       0.056700
     30 H10         28.9920     9.6260    20.0820 h1         1 E8Y       0.056700
     31 H11         26.3850    13.8610    19.3240 ha         1 E8Y       0.127000
     32 H12         24.4840    13.4060    20.8600 ha         1 E8Y       0.119000
     33 H13         29.8580    16.3830    19.4350 ha         1 E8Y       0.121000
     34 H14         28.6340    11.2840    18.1370 hn         1 E8Y       0.498000
@<TRIPOS>BOND
     1     1     9 1   
     2     1    11 1   
     3     1    12 1   
     4     2     3 ar  
     5     2     7 ar  
     6     2    22 1   
     7     3     4 ar  
     8     3    23 1   
     9     4     5 1   
    10     4     6 ar  
    11     5    19 1   
    12     5    20 1   
    13     5    21 1   
    14     6    18 ar  
    15     6    24 1   
    16     7    18 ar  
    17     7    25 1   
    18     8    14 ar  
    19     8    15 ar  
    20     8    26 1   
    21     9    15 1   
    22     9    27 1   
    23     9    28 1   
    24    10    11 3   
    25    12    16 1   
    26    12    29 1   
    27    12    30 1   
    28    13    14 ar  
    29    13    17 ar  
    30    13    31 1   
    31    14    32 1   
    32    15    16 ar  
    33    16    17 ar  
    34    17    22 1   
    35    18    33 1   
    36    22    34 1   
@<TRIPOS>SUBSTRUCTURE
     1 E8Y         1 TEMP              0 ****  ****    0 ROOT
