@<TRIPOS>MOLECULE
E8Y
   34    36     1     0     0
SMALL
bcc


@<TRIPOS>ATOM
      1 N1          27.3280     8.4940    20.8470 n3         1 E8Y      -0.658200
      2 C4          28.9700    13.2140    18.2460 ca         1 E8Y       0.182600
      3 C5          29.6890    13.2730    17.0460 ca         1 E8Y      -0.152000
      4 C6          30.4230    14.4010    16.7230 ca         1 E8Y      -0.154300
      5 C7          31.1970    14.4570    15.4440 c3         1 E8Y       0.718200
      6 C8          30.4440    15.5070    17.5670 ca         1 E8Y      -0.119000
      7 C10         29.0080    14.3160    19.1030 ca         1 E8Y      -0.159000
      8 C13         25.1130    11.3790    21.2210 ca         1 E8Y      -0.135000
      9 C15         26.1160     9.0060    21.4890 c5         1 E8Y       0.295100
     10 N           28.1730     6.2050    21.2120 n1         1 E8Y      -0.420800
     11 C           27.7740     7.2810    21.0400 c1         1 E8Y       0.365600
     12 C1          27.9880     9.4380    19.9450 c5         1 E8Y       0.301100
     13 C11         26.2950    12.8520    19.7040 ca         1 E8Y      -0.170000
     14 C12         25.2540    12.6080    20.5900 ca         1 E8Y      -0.092000
     15 C14         26.0480    10.3970    20.9380 ca         1 E8Y      -0.068300
     16 C2          27.0990    10.6340    20.0690 ca         1 E8Y      -0.154300
     17 C3          27.2490    11.8670    19.4360 ca         1 E8Y       0.196600
     18 C9          29.7310    15.4460    18.7530 ca         1 E8Y      -0.096000
     19 F           30.6960    15.3700    14.5970 f          1 E8Y      -0.234633
     20 F1          31.2080    13.2890    14.7940 f          1 E8Y      -0.234633
     21 F2          32.4760    14.7980    15.6550 f          1 E8Y      -0.234633
     22 N2          28.3020    12.0440    18.5470 nu         1 E8Y      -0.667000
     23 H1          29.6620    12.4190    16.3820 ha         1 E8Y       0.147000
     24 H2          31.0070    16.3960    17.3180 ha         1 E8Y       0.150000
     25 H3          28.4910    14.2930    20.0530 ha         1 E8Y       0.146000
     26 H4          24.2980    11.1960    21.9090 ha         1 E8Y       0.142000
     27 H5          26.2090     8.9940    22.5780 h1         1 E8Y       0.062700
     28 H6          25.2410     8.4100    21.2170 h1         1 E8Y       0.062700
     29 H9          28.0300     9.0400    18.9260 h1         1 E8Y       0.056700
     30 H10         29.0140     9.6450    20.2660 h1         1 E8Y       0.056700
     31 H11         26.3500    13.8120    19.2080 ha         1 E8Y       0.145000
     32 H12         24.5330    13.3930    20.7780 ha         1 E8Y       0.137000
     33 H13         29.7470    16.2890    19.4310 ha         1 E8Y       0.139000
     34 H14         28.5620    11.2400    17.9970 hn         1 E8Y       0.442800
@<TRIPOS>BOND
     1     1     9 1   
     2     1    11 1   
     3     1    12 1   
     4     2     3 ar  
     5     2     7 ar  
     6     2    22 1   
     7     3     4 ar  
     8     3    23 1   
     9     4     5 1   
    10     4     6 ar  
    11     5    19 1   
    12     5    20 1   
    13     5    21 1   
    14     6    18 ar  
    15     6    24 1   
    16     7    18 ar  
    17     7    25 1   
    18     8    14 ar  
    19     8    15 ar  
    20     8    26 1   
    21     9    15 1   
    22     9    27 1   
    23     9    28 1   
    24    10    11 3   
    25    12    16 1   
    26    12    29 1   
    27    12    30 1   
    28    13    14 ar  
    29    13    17 ar  
    30    13    31 1   
    31    14    32 1   
    32    15    16 ar  
    33    16    17 ar  
    34    17    22 1   
    35    18    33 1   
    36    22    34 1   
@<TRIPOS>SUBSTRUCTURE
     1 E8Y         1 TEMP              0 ****  ****    0 ROOT
