@<TRIPOS>MOLECULE
E8Z
   37    39     1     0     0
SMALL
abcg2


@<TRIPOS>ATOM
      1 OAD         -1.0320    -1.5020    -0.0790 o          1 E8Z      -0.563100
      2 CAT         -1.7580    -0.5120    -0.0710 c          1 E8Z       0.614900
      3 CAV         -3.2180    -0.6390    -0.0730 ca         1 E8Z      -0.218600
      4 CAJ         -3.8420    -1.8920    -0.0650 ca         1 E8Z      -0.024000
      5 CAF         -5.2160    -1.9850    -0.0660 ca         1 E8Z      -0.138000
      6 CAE         -5.9970    -0.8260    -0.0770 ca         1 E8Z      -0.054000
      7 CAI         -5.4070     0.4220    -0.0860 ca         1 E8Z      -0.131000
      8 CAU         -4.0190     0.4970    -0.0820 ca         1 E8Z       0.133100
      9 OAN         -3.4700     1.7370    -0.0870 os         1 E8Z      -0.193200
     10 CAK         -2.1600     1.8770    -0.0710 cc         1 E8Z       0.120100
     11 CAS         -1.2660     0.8600    -0.0590 cd         1 E8Z      -0.387400
     12 CAO          0.1740     1.2600    -0.0310 c          1 E8Z       0.641300
     13 OAC          0.4910     2.4400    -0.0130 o          1 E8Z      -0.616100
     14 NAM          1.0470     0.2330    -0.0270 ns         1 E8Z      -0.139000
     15 CAR          2.4460     0.2720    -0.0080 ca         1 E8Z      -0.017000
     16 CAL          3.1000    -0.9390    -0.2500 ca         1 E8Z      -0.157000
     17 CAQ          4.4820    -1.0450    -0.2370 ca         1 E8Z      -0.050300
     18 CAB          5.1360    -2.3690    -0.5030 c3         1 E8Z      -0.046800
     19 CAP          5.2560     0.0940     0.0280 ca         1 E8Z      -0.102300
     20 CAA          6.7540     0.0220     0.0580 c3         1 E8Z      -0.039800
     21 CAG          4.5970     1.2930     0.2670 ca         1 E8Z      -0.087000
     22 CAH          3.2120     1.4040     0.2540 ca         1 E8Z      -0.132000
     23 H1          -3.2320    -2.7850    -0.0560 ha         1 E8Z       0.142000
     24 H2          -5.6940    -2.9550    -0.0570 ha         1 E8Z       0.126000
     25 H3          -7.0750    -0.9020    -0.0780 ha         1 E8Z       0.124000
     26 H4          -6.0020     1.3250    -0.0940 ha         1 E8Z       0.139000
     27 H5          -1.8620     2.9170    -0.0690 h4         1 E8Z       0.261000
     28 H8           0.6250    -0.6920    -0.0730 hn         1 E8Z       0.190000
     29 H9           2.5090    -1.8260    -0.4560 ha         1 E8Z       0.114000
     30 H10          5.8140    -2.3170    -1.3570 hc         1 E8Z       0.041033
     31 H11          5.7300    -2.7000     0.3510 hc         1 E8Z       0.041033
     32 H12          4.3970    -3.1420    -0.7110 hc         1 E8Z       0.041033
     33 H13          7.1650    -0.2920    -0.9040 hc         1 E8Z       0.038367
     34 H14          7.1900     0.9900     0.3030 hc         1 E8Z       0.038367
     35 H15          7.1090    -0.6970     0.8000 hc         1 E8Z       0.038367
     36 H16          5.1810     2.1810     0.4790 ha         1 E8Z       0.110000
     37 H17          2.7560     2.3590     0.4560 ha         1 E8Z       0.143000
@<TRIPOS>BOND
     1     1     2 2   
     2     2     3 1   
     3     2    11 1   
     4     3     4 ar  
     5     3     8 ar  
     6     4     5 ar  
     7     4    23 1   
     8     5     6 ar  
     9     5    24 1   
    10     6     7 ar  
    11     6    25 1   
    12     7     8 ar  
    13     7    26 1   
    14     8     9 1   
    15     9    10 1   
    16    10    11 2   
    17    10    27 1   
    18    11    12 1   
    19    12    13 2   
    20    12    14 1   
    21    14    15 1   
    22    14    28 1   
    23    15    16 ar  
    24    15    22 ar  
    25    16    17 ar  
    26    16    29 1   
    27    17    18 1   
    28    17    19 ar  
    29    18    30 1   
    30    18    31 1   
    31    18    32 1   
    32    19    20 1   
    33    19    21 ar  
    34    20    33 1   
    35    20    34 1   
    36    20    35 1   
    37    21    22 ar  
    38    21    36 1   
    39    22    37 1   
@<TRIPOS>SUBSTRUCTURE
     1 E8Z         1 TEMP              0 ****  ****    0 ROOT
