@<TRIPOS>MOLECULE
E8Z
   37    39     1     0     0
SMALL
No Charge or Current Charge


@<TRIPOS>ATOM
      1 OAD         -1.0170    -1.3610    -0.4070 o          1 E8Z      -0.563100
      2 CAT         -1.7660    -0.4100    -0.2320 c          1 E8Z       0.614900
      3 CAV         -3.2270    -0.6090    -0.1610 ca         1 E8Z      -0.218600
      4 CAJ         -3.7900    -1.9060    -0.1600 ca         1 E8Z      -0.024000
      5 CAF         -5.1830    -2.0690    -0.0930 ca         1 E8Z      -0.138000
      6 CAE         -6.0180    -0.9430    -0.0340 ca         1 E8Z      -0.054000
      7 CAI         -5.4520     0.3430    -0.0380 ca         1 E8Z      -0.131000
      8 CAU         -4.0570     0.5160    -0.0920 ca         1 E8Z       0.133100
      9 OAN         -3.5910     1.8170    -0.1290 os         1 E8Z      -0.193200
     10 CAK         -2.2330     2.0210     0.0800 cc         1 E8Z       0.120100
     11 CAS         -1.3190     0.9790    -0.0510 cd         1 E8Z      -0.387400
     12 CAO          0.1200     1.3640     0.0320 c          1 E8Z       0.641300
     13 OAC          0.4460     2.5350     0.1880 o          1 E8Z      -0.616100
     14 NAM          1.0450     0.3340    -0.0760 ns         1 E8Z      -0.139000
     15 CAR          2.4670     0.3000    -0.0400 ca         1 E8Z      -0.017000
     16 CAL          3.0870    -0.9500    -0.2110 ca         1 E8Z      -0.157000
     17 CAQ          4.4900    -1.0820    -0.1890 ca         1 E8Z      -0.050300
     18 CAB          5.1140    -2.4610    -0.3800 c3         1 E8Z      -0.046800
     19 CAP          5.2940     0.0640     0.0090 ca         1 E8Z      -0.102300
     20 CAA          6.8170    -0.0300     0.0390 c3         1 E8Z      -0.039800
     21 CAG          4.6760     1.3170     0.1810 ca         1 E8Z      -0.087000
     22 CAH          3.2770     1.4380     0.1580 ca         1 E8Z      -0.132000
     23 H1          -3.1520    -2.7880    -0.2090 ha         1 E8Z       0.142000
     24 H2          -5.6140    -3.0670    -0.0920 ha         1 E8Z       0.126000
     25 H3          -7.0980    -1.0650     0.0120 ha         1 E8Z       0.124000
     26 H4          -6.1000     1.2160     0.0000 ha         1 E8Z       0.139000
     27 H5          -1.9970     3.0710     0.2390 h4         1 E8Z       0.261000
     28 H8           0.6230    -0.5760    -0.2080 hn         1 E8Z       0.190000
     29 H9           2.4700    -1.8330    -0.3630 ha         1 E8Z       0.114000
     30 H10          5.7660    -2.4810    -1.2610 hc         1 E8Z       0.041033
     31 H11          5.7150    -2.7470     0.4920 hc         1 E8Z       0.041033
     32 H12          4.3530    -3.2380    -0.5200 hc         1 E8Z       0.041033
     33 H13          7.2070    -0.4250    -0.9060 hc         1 E8Z       0.038367
     34 H14          7.2830     0.9490     0.2010 hc         1 E8Z       0.038367
     35 H15          7.1550    -0.6900     0.8470 hc         1 E8Z       0.038367
     36 H16          5.2820     2.2080     0.3350 ha         1 E8Z       0.110000
     37 H17          2.8470     2.4250     0.2970 ha         1 E8Z       0.143000
@<TRIPOS>BOND
     1     1     2 2   
     2     2     3 1   
     3     2    11 1   
     4     3     4 ar  
     5     3     8 ar  
     6     4     5 ar  
     7     4    23 1   
     8     5     6 ar  
     9     5    24 1   
    10     6     7 ar  
    11     6    25 1   
    12     7     8 ar  
    13     7    26 1   
    14     8     9 1   
    15     9    10 1   
    16    10    11 2   
    17    10    27 1   
    18    11    12 1   
    19    12    13 2   
    20    12    14 1   
    21    14    15 1   
    22    14    28 1   
    23    15    16 ar  
    24    15    22 ar  
    25    16    17 ar  
    26    16    29 1   
    27    17    18 1   
    28    17    19 ar  
    29    18    30 1   
    30    18    31 1   
    31    18    32 1   
    32    19    20 1   
    33    19    21 ar  
    34    20    33 1   
    35    20    34 1   
    36    20    35 1   
    37    21    22 ar  
    38    21    36 1   
    39    22    37 1   
@<TRIPOS>SUBSTRUCTURE
     1 E8Z         1 TEMP              0 ****  ****    0 ROOT
