@<TRIPOS>MOLECULE
E90
   31    32     1     0     0
SMALL
No Charge or Current Charge


@<TRIPOS>ATOM
      1 N1          -5.9650     0.3300     0.0270 nb         1 E90      -0.180000
      2 C2          -4.6560    -0.0040     0.0200 ca         1 E90       0.210300
      3 N3          -4.1640    -1.2640     0.0010 nb         1 E90      -0.180000
      4 C4          -5.0590    -2.2720    -0.0110 ca         1 E90       0.122900
      5 C5          -6.4400    -2.0220    -0.0050 ca         1 E90      -0.229000
      6 C6          -6.8560    -0.6810     0.0140 ca         1 E90       0.122900
      7 S7          -3.4910     1.3580     0.0370 ss         1 E90      -0.223300
      8 C8          -1.8170     0.5400     0.0220 c3         1 E90      -0.090400
      9 C9          -0.6320     1.5260     0.0340 c          1 E90       0.589700
     10 O10         -0.8230     2.7380     0.0510 o          1 E90      -0.492100
     11 C11          0.7800     0.9680     0.0250 ca         1 E90      -0.120600
     12 C12          1.0320    -0.4260     0.0040 ca         1 E90      -0.086000
     13 C13          2.3500    -0.9180    -0.0040 ca         1 E90      -0.024500
     14 C14          3.4410    -0.0280     0.0090 ca         1 E90      -0.241500
     15 C15          3.2030     1.3600     0.0270 ca         1 E90      -0.024500
     16 C16          1.8860     1.8510     0.0360 ca         1 E90      -0.086000
     17 S17          5.1260    -0.6580    -0.0020 sy         1 E90       1.126600
     18 O18          6.0660     0.3500     0.4830 o          1 E90      -0.540000
     19 O19          5.1690    -2.0460     0.4520 o          1 E90      -0.540000
     20 N20          5.4720    -0.7670    -1.5930 n8         1 E90      -1.007100
     21 H4          -4.6620    -3.2860    -0.0270 h4         1 E90       0.027100
     22 H5          -7.1610    -2.8360    -0.0160 ha         1 E90       0.137000
     23 H6          -7.9110    -0.4120     0.0200 h4         1 E90       0.027100
     24 H8          -1.7220    -0.1050     0.9040 h1         1 E90       0.100200
     25 H8A         -1.7260    -0.0790    -0.8780 h1         1 E90       0.100200
     26 H12          0.2190    -1.1470    -0.0070 ha         1 E90       0.133000
     27 H13          2.5170    -1.9940    -0.0230 ha         1 E90       0.141500
     28 H15          4.0340     2.0640     0.0340 ha         1 E90       0.141500
     29 H16          1.7300     2.9280     0.0500 ha         1 E90       0.133000
     30 HN20         6.3460    -0.2480    -1.6250 hn         1 E90       0.476500
     31 HN2A         5.7960    -1.7300    -1.6440 hn         1 E90       0.476500
@<TRIPOS>BOND
     1     1     2 ar  
     2     1     6 ar  
     3     2     3 ar  
     4     2     7 1   
     5     3     4 ar  
     6     4     5 ar  
     7     4    21 1   
     8     5     6 ar  
     9     5    22 1   
    10     6    23 1   
    11     7     8 1   
    12     8     9 1   
    13     8    24 1   
    14     8    25 1   
    15     9    10 2   
    16     9    11 1   
    17    11    12 ar  
    18    11    16 ar  
    19    12    13 ar  
    20    12    26 1   
    21    13    14 ar  
    22    13    27 1   
    23    14    15 ar  
    24    14    17 1   
    25    15    16 ar  
    26    15    28 1   
    27    16    29 1   
    28    17    18 2   
    29    17    19 2   
    30    17    20 1   
    31    20    30 1   
    32    20    31 1   
@<TRIPOS>SUBSTRUCTURE
     1 E90         1 TEMP              0 ****  ****    0 ROOT
