@<TRIPOS>MOLECULE
E90
   31    32     1     0     0
SMALL
abcg2


@<TRIPOS>ATOM
      1 N1          -5.7420     0.3880     0.0040 nb         1 E90      -0.180000
      2 C2          -4.4810    -0.0290    -0.0050 ca         1 E90       0.210300
      3 N3          -4.0630    -1.2820     0.0090 nb         1 E90      -0.180000
      4 C4          -5.0080    -2.2170     0.0350 ca         1 E90       0.122900
      5 C5          -6.3550    -1.9060     0.0480 ca         1 E90      -0.229000
      6 C6          -6.6710    -0.5560     0.0300 ca         1 E90       0.122900
      7 S7          -3.3240     1.2900    -0.0400 ss         1 E90      -0.223300
      8 C8          -1.7650     0.3780    -0.0330 c3         1 E90      -0.090400
      9 C9          -0.6350     1.3740    -0.0490 c          1 E90       0.589700
     10 O10         -0.8550     2.5630    -0.0810 o          1 E90      -0.492100
     11 C11          0.7590     0.8480    -0.0240 ca         1 E90      -0.120600
     12 C12          1.0300    -0.5160     0.0200 ca         1 E90      -0.086000
     13 C13          2.3390    -0.9740     0.0520 ca         1 E90      -0.024500
     14 C14          3.3720    -0.0530     0.0330 ca         1 E90      -0.241500
     15 C15          3.1240     1.3140    -0.0140 ca         1 E90      -0.024500
     16 C16          1.8170     1.7590    -0.0420 ca         1 E90      -0.086000
     17 S17          5.0540    -0.6190     0.0950 sy         1 E90       1.126600
     18 O18          5.8440     0.3180     0.8780 o          1 E90      -0.540000
     19 O19          5.0310    -2.0160     0.5010 o          1 E90      -0.540000
     20 N20          5.5120    -0.4060    -1.4740 n8         1 E90      -1.007100
     21 H4          -4.6700    -3.2470     0.0460 h4         1 E90       0.027100
     22 H5          -7.1170    -2.6700     0.0690 ha         1 E90       0.137000
     23 H6          -7.7030    -0.2230     0.0380 h4         1 E90       0.027100
     24 H8          -1.7010    -0.2570     0.8530 h1         1 E90       0.100200
     25 H8A         -1.7020    -0.2770    -0.9040 h1         1 E90       0.100200
     26 H12          0.2350    -1.2480     0.0360 ha         1 E90       0.133000
     27 H13          2.5340    -2.0360     0.0940 ha         1 E90       0.141500
     28 H15          3.9360     2.0290    -0.0250 ha         1 E90       0.141500
     29 H16          1.6210     2.8220    -0.0740 ha         1 E90       0.133000
     30 HN20         6.5220    -0.3430    -1.5630 hn         1 E90       0.476500
     31 HN2A         5.1440    -1.1200    -2.0940 hn         1 E90       0.476500
@<TRIPOS>BOND
     1     1     2 ar  
     2     1     6 ar  
     3     2     3 ar  
     4     2     7 1   
     5     3     4 ar  
     6     4     5 ar  
     7     4    21 1   
     8     5     6 ar  
     9     5    22 1   
    10     6    23 1   
    11     7     8 1   
    12     8     9 1   
    13     8    24 1   
    14     8    25 1   
    15     9    10 2   
    16     9    11 1   
    17    11    12 ar  
    18    11    16 ar  
    19    12    13 ar  
    20    12    26 1   
    21    13    14 ar  
    22    13    27 1   
    23    14    15 ar  
    24    14    17 1   
    25    15    16 ar  
    26    15    28 1   
    27    16    29 1   
    28    17    18 2   
    29    17    19 2   
    30    17    20 1   
    31    20    30 1   
    32    20    31 1   
@<TRIPOS>SUBSTRUCTURE
     1 E90         1 TEMP              0 ****  ****    0 ROOT
