@<TRIPOS>MOLECULE
E91
   38    41     1     0     0
SMALL
abcg2


@<TRIPOS>ATOM
      1 O01          6.9070    -1.2470    -0.0290 o          1 E91      -0.712500
      2 C02          6.6540    -0.0280    -0.0220 c          1 E91       0.709600
      3 O03          7.4730     0.9090    -0.0100 o          1 E91      -0.712500
      4 C04          5.1780     0.3580    -0.0300 ca         1 E91      -0.097600
      5 C05          4.7910     1.6950    -0.0430 ca         1 E91      -0.105500
      6 C06          3.4500     2.0440    -0.0490 ca         1 E91      -0.093000
      7 C07          2.4600     1.0600    -0.0420 ca         1 E91      -0.216900
      8 C08          1.0660     1.4700    -0.0480 ce         1 E91       0.544800
      9 N09          0.1080     0.6230    -0.0400 nf         1 E91      -0.477700
     10 N10         -1.1170     1.2190    -0.0460 nf         1 E91      -0.390700
     11 C11         -2.1170     0.4200    -0.0360 cc         1 E91       0.506500
     12 C12         -2.2290    -1.0550    -0.0170 ca         1 E91      -0.140900
     13 C13         -1.2750    -2.0620    -0.0030 ca         1 E91      -0.055500
     14 C14         -1.7000    -3.3870     0.0150 ca         1 E91      -0.121000
     15 C15         -3.0530    -3.7030     0.0180 ca         1 E91      -0.111500
     16 C16         -4.0160    -2.6970     0.0050 ca         1 E91      -0.097500
     17 C17         -3.5980    -1.3800    -0.0120 cp         1 E91      -0.035500
     18 C18         -4.3840    -0.1420    -0.0280 cp         1 E91      -0.035500
     19 C19         -5.7500     0.0750    -0.0300 ca         1 E91      -0.097500
     20 C20         -6.2120     1.3890    -0.0460 ca         1 E91      -0.111500
     21 C21         -5.3240     2.4620    -0.0590 ca         1 E91      -0.121000
     22 C22         -3.9500     2.2430    -0.0570 ca         1 E91      -0.055500
     23 C23         -3.4930     0.9380    -0.0410 ca         1 E91      -0.140900
     24 C24          2.8460    -0.2840    -0.0290 ca         1 E91      -0.093000
     25 C25          4.1850    -0.6230    -0.0240 ca         1 E91      -0.105500
     26 H2           5.5460     2.4680    -0.0480 ha         1 E91       0.132500
     27 H3           3.1660     3.0900    -0.0590 ha         1 E91       0.096000
     28 H4           0.8600     2.5420    -0.0580 h4         1 E91      -0.018200
     29 H6          -0.2220    -1.8280    -0.0060 ha         1 E91       0.140000
     30 H7          -0.9640    -4.1810     0.0260 ha         1 E91       0.111000
     31 H8          -3.3610    -4.7400     0.0330 ha         1 E91       0.104500
     32 H10         -5.0700    -2.9490     0.0090 ha         1 E91       0.109500
     33 H11         -6.4520    -0.7490    -0.0200 ha         1 E91       0.109500
     34 H12         -7.2770     1.5780    -0.0470 ha         1 E91       0.104500
     35 H13         -5.7070     3.4730    -0.0710 ha         1 E91       0.111000
     36 H14         -3.2550     3.0740    -0.0680 ha         1 E91       0.140000
     37 H15          2.0910    -1.0600    -0.0230 ha         1 E91       0.096000
     38 H16          4.4720    -1.6660    -0.0150 ha         1 E91       0.132500
@<TRIPOS>BOND
     1     1     2 1   
     2     2     3 1   
     3     2     4 1   
     4     4     5 ar  
     5     4    25 ar  
     6     5     6 ar  
     7     5    26 1   
     8     6     7 ar  
     9     6    27 1   
    10     7     8 1   
    11     7    24 ar  
    12     8     9 2   
    13     8    28 1   
    14     9    10 1   
    15    10    11 2   
    16    11    12 1   
    17    11    23 1   
    18    12    13 ar  
    19    12    17 ar  
    20    13    14 ar  
    21    13    29 1   
    22    14    15 ar  
    23    14    30 1   
    24    15    16 ar  
    25    15    31 1   
    26    16    17 ar  
    27    16    32 1   
    28    17    18 1   
    29    18    19 ar  
    30    18    23 ar  
    31    19    20 ar  
    32    19    33 1   
    33    20    21 ar  
    34    20    34 1   
    35    21    22 ar  
    36    21    35 1   
    37    22    23 ar  
    38    22    36 1   
    39    24    25 ar  
    40    24    37 1   
    41    25    38 1   
@<TRIPOS>SUBSTRUCTURE
     1 E91         1 TEMP              0 ****  ****    0 ROOT
