@<TRIPOS>MOLECULE
E91
   38    41     1     0     0
SMALL
No Charge or Current Charge


@<TRIPOS>ATOM
      1 O01          7.1160    -0.6460    -1.3400 o          1 E91      -0.712500
      2 C02          6.8100     0.2850    -0.6070 c          1 E91       0.709600
      3 O03          7.6400     1.0160    -0.0840 o          1 E91      -0.712500
      4 C04          5.3340     0.5450    -0.3350 ca         1 E91      -0.097600
      5 C05          4.9260     1.6080     0.5040 ca         1 E91      -0.105500
      6 C06          3.5640     1.8470     0.7540 ca         1 E91      -0.093000
      7 C07          2.5720     1.0330     0.1740 ca         1 E91      -0.216900
      8 C08          1.1280     1.3140     0.4620 ce         1 E91       0.544800
      9 N09          0.1500     0.5920    -0.0500 nf         1 E91      -0.477700
     10 N10         -1.1400     0.9310     0.3370 nf         1 E91      -0.390700
     11 C11         -2.1560     0.2400    -0.1150 cc         1 E91       0.506500
     12 C12         -2.3770    -1.1870     0.1330 ca         1 E91      -0.140900
     13 C13         -1.4650    -2.1960     0.4870 ca         1 E91      -0.055500
     14 C14         -1.9610    -3.4980     0.7120 ca         1 E91      -0.121000
     15 C15         -3.3440    -3.7750     0.6080 ca         1 E91      -0.111500
     16 C16         -4.2550    -2.7480     0.2870 ca         1 E91      -0.097500
     17 C17         -3.7520    -1.4540     0.0550 cp         1 E91      -0.035500
     18 C18         -4.4480    -0.1780    -0.2300 cp         1 E91      -0.035500
     19 C19         -5.8160     0.1260    -0.3540 ca         1 E91      -0.097500
     20 C20         -6.1890     1.4700    -0.5630 ca         1 E91      -0.111500
     21 C21         -5.2060     2.4860    -0.6270 ca         1 E91      -0.121000
     22 C22         -3.8350     2.1740    -0.4920 ca         1 E91      -0.055500
     23 C23         -3.4760     0.8280    -0.3170 ca         1 E91      -0.140900
     24 C24          2.9720    -0.0300    -0.6640 ca         1 E91      -0.093000
     25 C25          4.3340    -0.2700    -0.9150 ca         1 E91      -0.105500
     26 H2           5.6680     2.2550     0.9670 ha         1 E91       0.132500
     27 H3           3.2810     2.6730     1.4040 ha         1 E91       0.096000
     28 H4           0.9130     2.1530     1.1290 h4         1 E91      -0.018200
     29 H6          -0.4010    -1.9880     0.5790 ha         1 E91       0.140000
     30 H7          -1.2710    -4.2970     0.9750 ha         1 E91       0.111000
     31 H8          -3.7100    -4.7830     0.7910 ha         1 E91       0.104500
     32 H10         -5.3230    -2.9480     0.2300 ha         1 E91       0.109500
     33 H11         -6.5680    -0.6560    -0.2800 ha         1 E91       0.109500
     34 H12         -7.2410     1.7290    -0.6630 ha         1 E91       0.104500
     35 H13         -5.5090     3.5200    -0.7750 ha         1 E91       0.111000
     36 H14         -3.0780     2.9550    -0.5320 ha         1 E91       0.140000
     37 H15          2.2300    -0.6780    -1.1270 ha         1 E91       0.096000
     38 H16          4.6110    -1.0970    -1.5660 ha         1 E91       0.132500
@<TRIPOS>BOND
     1     1     2 1   
     2     2     3 1   
     3     2     4 1   
     4     4     5 ar  
     5     4    25 ar  
     6     5     6 ar  
     7     5    26 1   
     8     6     7 ar  
     9     6    27 1   
    10     7     8 1   
    11     7    24 ar  
    12     8     9 2   
    13     8    28 1   
    14     9    10 1   
    15    10    11 2   
    16    11    12 1   
    17    11    23 1   
    18    12    13 ar  
    19    12    17 ar  
    20    13    14 ar  
    21    13    29 1   
    22    14    15 ar  
    23    14    30 1   
    24    15    16 ar  
    25    15    31 1   
    26    16    17 ar  
    27    16    32 1   
    28    17    18 1   
    29    18    19 ar  
    30    18    23 ar  
    31    19    20 ar  
    32    19    33 1   
    33    20    21 ar  
    34    20    34 1   
    35    21    22 ar  
    36    21    35 1   
    37    22    23 ar  
    38    22    36 1   
    39    24    25 ar  
    40    24    37 1   
    41    25    38 1   
@<TRIPOS>SUBSTRUCTURE
     1 E91         1 TEMP              0 ****  ****    0 ROOT
