@<TRIPOS>MOLECULE
E92
   31    33     1     0     0
SMALL
No Charge or Current Charge


@<TRIPOS>ATOM
      1 OAB         -1.0260    -1.3580    -0.1340 o          1 E92      -0.563100
      2 CAS         -1.8310    -0.4370    -0.1380 c          1 E92       0.615900
      3 CAU         -3.2810    -0.7080    -0.1090 ca         1 E92      -0.218600
      4 CAJ         -3.7770    -2.0210     0.0570 ca         1 E92      -0.023000
      5 CAE         -5.1620    -2.2530     0.0810 ca         1 E92      -0.137000
      6 CAD         -6.0540    -1.1810    -0.0660 ca         1 E92      -0.053000
      7 CAI         -5.5550     0.1220    -0.2340 ca         1 E92      -0.130000
      8 CAT         -4.1690     0.3650    -0.2460 ca         1 E92       0.133100
      9 OAN         -3.7670     1.6720    -0.4530 os         1 E92      -0.193200
     10 CAK         -2.4350     1.9820    -0.2150 cc         1 E92       0.125100
     11 CAR         -1.4640     0.9860    -0.1460 cd         1 E92      -0.390400
     12 CAO         -0.0530     1.4620    -0.0550 c          1 E92       0.643300
     13 OAA          0.2050     2.6590    -0.0600 o          1 E92      -0.612100
     14 NAM          0.9270     0.4830     0.0350 ns         1 E92      -0.142000
     15 CAQ          2.3440     0.5380     0.1430 ca         1 E92      -0.001000
     16 CAL          3.0370    -0.6880     0.1800 ca         1 E92      -0.161000
     17 CAP          4.4370    -0.7160     0.2860 ca         1 E92       0.147000
     18 Cl           5.2810    -2.2580     0.3310 cl         1 E92      -0.207000
     19 CAG          5.1630     0.4810     0.3570 ca         1 E92      -0.134000
     20 CAF          4.4860     1.7100     0.3230 ca         1 E92      -0.079000
     21 CAH          3.0840     1.7410     0.2160 ca         1 E92      -0.137000
     22 H1          -3.0940    -2.8620     0.1690 ha         1 E92       0.143000
     23 H2          -5.5420    -3.2640     0.2090 ha         1 E92       0.127000
     24 H3          -7.1280    -1.3570    -0.0540 ha         1 E92       0.125000
     25 H4          -6.2470     0.9510    -0.3560 ha         1 E92       0.139000
     26 H5          -2.2610     3.0560    -0.2030 h4         1 E92       0.260000
     27 H6           0.5580    -0.4590     0.0200 hn         1 E92       0.194000
     28 H7           2.4910    -1.6260     0.1260 ha         1 E92       0.133000
     29 H8           6.2470     0.4560     0.4400 ha         1 E92       0.129000
     30 H9           5.0470     2.6410     0.3790 ha         1 E92       0.117000
     31 H10          2.5950     2.7100     0.1940 ha         1 E92       0.149000
@<TRIPOS>BOND
     1     1     2 2   
     2     2     3 1   
     3     2    11 1   
     4     3     4 ar  
     5     3     8 ar  
     6     4     5 ar  
     7     4    22 1   
     8     5     6 ar  
     9     5    23 1   
    10     6     7 ar  
    11     6    24 1   
    12     7     8 ar  
    13     7    25 1   
    14     8     9 1   
    15     9    10 1   
    16    10    11 2   
    17    10    26 1   
    18    11    12 1   
    19    12    13 2   
    20    12    14 1   
    21    14    15 1   
    22    14    27 1   
    23    15    16 ar  
    24    15    21 ar  
    25    16    17 ar  
    26    16    28 1   
    27    17    18 1   
    28    17    19 ar  
    29    19    20 ar  
    30    19    29 1   
    31    20    21 ar  
    32    20    30 1   
    33    21    31 1   
@<TRIPOS>SUBSTRUCTURE
     1 E92         1 TEMP              0 ****  ****    0 ROOT
