@<TRIPOS>MOLECULE
E92
   31    33     1     0     0
SMALL
bcc


@<TRIPOS>ATOM
      1 OAB         -1.0270    -1.4350     0.0890 o          1 E92      -0.563100
      2 CAS         -1.8160    -0.4980     0.0020 c          1 E92       0.615900
      3 CAU         -3.2620    -0.7260    -0.0560 ca         1 E92      -0.218600
      4 CAJ         -3.8020    -2.0170    -0.0100 ca         1 E92      -0.041000
      5 CAE         -5.1650    -2.2030    -0.0650 ca         1 E92      -0.155000
      6 CAD         -6.0190    -1.1010    -0.1690 ca         1 E92      -0.071000
      7 CAI         -5.5130     0.1820    -0.2160 ca         1 E92      -0.148000
      8 CAT         -4.1360     0.3510    -0.1580 ca         1 E92       0.133100
      9 OAN         -3.6690     1.6240    -0.2040 os         1 E92      -0.193200
     10 CAK         -2.3730     1.8550    -0.1520 cc         1 E92       0.175100
     11 CAR         -1.4170     0.9010    -0.0530 cd         1 E92      -0.390400
     12 CAO         -0.0060     1.3930    -0.0090 c          1 E92       0.710300
     13 OAA          0.2400     2.5870    -0.0590 o          1 E92      -0.612100
     14 NAM          0.9270     0.4210     0.0870 ns         1 E92      -0.468100
     15 CAQ          2.3140     0.5400     0.1500 ca         1 E92       0.091600
     16 CAL          3.0210    -0.6620     0.2570 ca         1 E92      -0.179000
     17 CAP          4.4000    -0.6450     0.3250 ca         1 E92       0.055400
     18 CL           5.2510    -2.1490     0.4590 cl         1 E92      -0.115400
     19 CAG          5.1170     0.5410     0.2910 ca         1 E92      -0.152000
     20 CAF          4.4040     1.7250     0.1850 ca         1 E92      -0.097000
     21 CAH          3.0180     1.7450     0.1140 ca         1 E92      -0.155000
     22 H1          -3.1360    -2.8650     0.0700 ha         1 E92       0.161000
     23 H2          -5.5770    -3.2020    -0.0280 ha         1 E92       0.145000
     24 H3          -7.0900    -1.2500    -0.2110 ha         1 E92       0.143000
     25 H4          -6.1650     1.0410    -0.2960 ha         1 E92       0.157000
     26 H5          -2.1460     2.9110    -0.1980 h4         1 E92       0.210000
     27 H6           0.5530    -0.5270     0.1180 hn         1 E92       0.360500
     28 H7           2.4880    -1.6050     0.2860 ha         1 E92       0.151000
     29 H8           6.1960     0.5430     0.3440 ha         1 E92       0.147000
     30 H9           4.9430     2.6630     0.1560 ha         1 E92       0.135000
     31 H10          2.5050     2.6870     0.0290 ha         1 E92       0.167000
@<TRIPOS>BOND
     1     1     2 2   
     2     2     3 1   
     3     2    11 1   
     4     3     4 ar  
     5     3     8 ar  
     6     4     5 ar  
     7     4    22 1   
     8     5     6 ar  
     9     5    23 1   
    10     6     7 ar  
    11     6    24 1   
    12     7     8 ar  
    13     7    25 1   
    14     8     9 1   
    15     9    10 1   
    16    10    11 2   
    17    10    26 1   
    18    11    12 1   
    19    12    13 2   
    20    12    14 1   
    21    14    15 1   
    22    14    27 1   
    23    15    16 ar  
    24    15    21 ar  
    25    16    17 ar  
    26    16    28 1   
    27    17    18 1   
    28    17    19 ar  
    29    19    20 ar  
    30    19    29 1   
    31    20    21 ar  
    32    20    30 1   
    33    21    31 1   
@<TRIPOS>SUBSTRUCTURE
     1 E92         1 TEMP              0 ****  ****    0 ROOT
