@<TRIPOS>MOLECULE
E93
   50    53     1     0     0
SMALL
No Charge or Current Charge


@<TRIPOS>ATOM
      1 C1         -25.5740   -19.6410    -1.6270 c3         1 E93      -0.123100
      2 C10        -21.0230   -22.3610   -11.4700 ca         1 E93      -0.161500
      3 C11        -21.2690   -22.5070   -12.8450 ca         1 E93       0.333900
      4 C12        -23.3170   -21.4470   -12.6650 ca         1 E93       0.333900
      5 C13        -23.1500   -21.2620   -11.2830 ca         1 E93      -0.161500
      6 C14        -20.4430   -21.3590    -8.6390 ca         1 E93      -0.068000
      7 C15        -20.2210   -21.1920    -7.2540 ca         1 E93      -0.131000
      8 C16        -21.3340   -21.2150    -6.4000 ca         1 E93      -0.026200
      9 C17        -20.1950   -20.9100    -4.1890 c3         1 E93       0.071600
     10 C18        -19.4290   -22.2210    -3.8890 c5         1 E93      -0.084700
     11 C19        -18.1860   -22.0400    -2.9840 c5         1 E93      -0.073900
     12 C2         -25.4480   -21.1370    -1.9830 c3         1 E93       0.168600
     13 C20        -17.7760   -23.5120    -2.6900 c5         1 E93      -0.081400
     14 C21        -19.1120   -24.3240    -2.7630 c5         1 E93      -0.081400
     15 C22        -20.2070   -23.2550    -3.0350 c5         1 E93      -0.073900
     16 C3         -23.3540   -21.1060    -3.2220 c          1 E93       0.632300
     17 C4         -22.7520   -21.1770    -4.5790 cc         1 E93      -0.133300
     18 C5         -23.4720   -21.3710    -5.7560 cd         1 E93      -0.153200
     19 C6         -22.5930   -21.3950    -6.8960 ca         1 E93      -0.129800
     20 C7         -22.8520   -21.5620    -8.2610 ca         1 E93      -0.026000
     21 C8         -21.7570   -21.5470    -9.1700 cp         1 E93      -0.085000
     22 C9         -21.9760   -21.7230   -10.6410 cp         1 E93       0.019000
     23 N1         -22.3960   -22.0590   -13.4430 nb         1 E93      -0.666000
     24 N2         -21.4070   -21.0830    -5.0140 na         1 E93      -0.051700
     25 O1         -24.7200   -21.2630    -3.2210 os         1 E93      -0.438100
     26 O2         -22.7010   -20.9310    -2.2020 o          1 E93      -0.499000
     27 H1         -26.1980   -19.5190    -0.7350 hc         1 E93       0.049367
     28 H3         -24.5950   -19.1950    -1.4180 hc         1 E93       0.049367
     29 H2         -26.0430   -19.0880    -2.4500 hc         1 E93       0.049367
     30 H8         -20.1020   -22.7580   -11.0560 ha         1 E93       0.123000
     31 H9         -20.5420   -23.0010   -13.4880 h4         1 E93       0.017100
     32 H10        -24.2160   -21.0900   -13.1670 h4         1 E93       0.017100
     33 H11        -23.9260   -20.7490   -10.7240 ha         1 E93       0.123000
     34 H12        -19.5880   -21.3280    -9.3090 ha         1 E93       0.115000
     35 H13        -19.2140   -21.0490    -6.8730 ha         1 E93       0.120000
     36 H15        -19.5210   -20.2150    -4.7040 h1         1 E93       0.073200
     37 H14        -20.4740   -20.4320    -3.2430 h1         1 E93       0.073200
     38 H16        -19.1440   -22.6530    -4.8570 hc         1 E93       0.056700
     39 H17        -17.3850   -21.4790    -3.4790 hc         1 E93       0.044200
     40 H18        -18.4340   -21.5030    -2.0600 hc         1 E93       0.044200
     41 H5         -26.4570   -21.5510    -2.1020 h1         1 E93       0.060700
     42 H4         -24.9580   -21.6870    -1.1680 h1         1 E93       0.060700
     43 H20        -17.0610   -23.8790    -3.4360 hc         1 E93       0.046450
     44 H19        -17.2890   -23.6060    -1.7120 hc         1 E93       0.046450
     45 H21        -19.3090   -24.8810    -1.8400 hc         1 E93       0.046450
     46 H22        -19.0720   -25.0590    -3.5750 hc         1 E93       0.046450
     47 H23        -20.5780   -22.8160    -2.1010 hc         1 E93       0.044200
     48 H24        -21.0710   -23.6750    -3.5640 hc         1 E93       0.044200
     49 H6         -24.5530   -21.4880    -5.8040 ha         1 E93       0.219000
     50 H7         -23.8710   -21.7150    -8.6070 ha         1 E93       0.120000
@<TRIPOS>BOND
     1     1    12 1   
     2     1    27 1   
     3     1    28 1   
     4     1    29 1   
     5     2     3 ar  
     6     2    22 ar  
     7     2    30 1   
     8     3    23 ar  
     9     3    31 1   
    10     4     5 ar  
    11     4    23 ar  
    12     4    32 1   
    13     5    22 ar  
    14     5    33 1   
    15     6     7 ar  
    16     6    21 ar  
    17     6    34 1   
    18     7     8 ar  
    19     7    35 1   
    20     8    19 ar  
    21     8    24 1   
    22     9    10 1   
    23     9    24 1   
    24     9    36 1   
    25     9    37 1   
    26    10    11 1   
    27    10    15 1   
    28    10    38 1   
    29    11    13 1   
    30    11    39 1   
    31    11    40 1   
    32    12    25 1   
    33    12    41 1   
    34    12    42 1   
    35    13    14 1   
    36    13    43 1   
    37    13    44 1   
    38    14    15 1   
    39    14    45 1   
    40    14    46 1   
    41    15    47 1   
    42    15    48 1   
    43    16    17 1   
    44    16    25 1   
    45    16    26 2   
    46    17    18 2   
    47    17    24 1   
    48    18    19 1   
    49    18    49 1   
    50    19    20 ar  
    51    20    21 ar  
    52    20    50 1   
    53    21    22 1   
@<TRIPOS>SUBSTRUCTURE
     1 E93         1 TEMP              0 ****  ****    0 ROOT
