@<TRIPOS>MOLECULE
E93
   50    53     1     0     0
SMALL
abcg2


@<TRIPOS>ATOM
      1 C1         -25.3190   -19.8440    -1.4890 c3         1 E93      -0.123100
      2 C10        -21.1200   -22.2820   -11.4500 ca         1 E93      -0.161500
      3 C11        -21.3540   -22.3490   -12.8140 ca         1 E93       0.333900
      4 C12        -23.2610   -21.1410   -12.6360 ca         1 E93       0.333900
      5 C13        -23.1190   -21.0150   -11.2640 ca         1 E93      -0.161500
      6 C14        -20.5050   -21.3580    -8.6600 ca         1 E93      -0.068000
      7 C15        -20.2520   -21.2590    -7.3130 ca         1 E93      -0.131000
      8 C16        -21.3460   -21.3050    -6.4420 ca         1 E93      -0.026200
      9 C17        -20.1770   -21.1460    -4.2790 c3         1 E93       0.071600
     10 C18        -19.4040   -22.4620    -4.1980 c5         1 E93      -0.084700
     11 C19        -18.1030   -22.2460    -3.3840 c5         1 E93      -0.073900
     12 C2         -25.1280   -21.2710    -1.9530 c3         1 E93       0.168600
     13 C20        -18.1200   -23.2950    -2.2680 c5         1 E93      -0.081400
     14 C21        -19.6050   -23.5560    -2.0380 c5         1 E93      -0.081400
     15 C22        -20.1600   -23.5830    -3.4600 c5         1 E93      -0.073900
     16 C3         -23.1710   -21.2380    -3.2960 c          1 E93       0.632300
     17 C4         -22.7100   -21.3150    -4.6910 cc         1 E93      -0.133300
     18 C5         -23.5130   -21.4400    -5.7980 cd         1 E93      -0.153200
     19 C6         -22.6630   -21.4350    -6.9310 ca         1 E93      -0.129800
     20 C7         -22.8910   -21.5230    -8.3090 ca         1 E93      -0.026000
     21 C8         -21.8160   -21.4910    -9.1780 cp         1 E93      -0.085000
     22 C9         -22.0190   -21.5960   -10.6330 cp         1 E93       0.019000
     23 N1         -22.4010   -21.7930   -13.4120 nb         1 E93      -0.666000
     24 N2         -21.3860   -21.2300    -5.0840 na         1 E93      -0.051700
     25 O1         -24.4900   -21.3460    -3.2370 os         1 E93      -0.438100
     26 O2         -22.4640   -21.0960    -2.3260 o          1 E93      -0.499000
     27 H1         -25.8670   -19.8490    -0.5460 hc         1 E93       0.049367
     28 H3         -24.3710   -19.3360    -1.3200 hc         1 E93       0.049367
     29 H2         -25.9000   -19.2680    -2.2090 hc         1 E93       0.049367
     30 H8         -20.2530   -22.7790   -11.0370 ha         1 E93       0.123000
     31 H9         -20.6610   -22.8860   -13.4520 h4         1 E93       0.017100
     32 H10        -24.1110   -20.6850   -13.1320 h4         1 E93       0.017100
     33 H11        -23.8520   -20.4500   -10.7040 ha         1 E93       0.123000
     34 H12        -19.6690   -21.3090    -9.3460 ha         1 E93       0.115000
     35 H13        -19.2370   -21.1450    -6.9560 ha         1 E93       0.120000
     36 H15        -19.5410   -20.3780    -4.7250 h1         1 E93       0.073200
     37 H14        -20.4390   -20.7950    -3.2860 h1         1 E93       0.073200
     38 H16        -19.1640   -22.7830    -5.2140 hc         1 E93       0.056700
     39 H17        -17.2140   -22.3170    -4.0120 hc         1 E93       0.044200
     40 H18        -18.0950   -21.2420    -2.9480 hc         1 E93       0.044200
     41 H5         -26.0910   -21.7560    -2.1010 h1         1 E93       0.060700
     42 H4         -24.5680   -21.8540    -1.2200 h1         1 E93       0.060700
     43 H20        -17.6340   -24.2160    -2.6040 hc         1 E93       0.046450
     44 H19        -17.5940   -22.9640    -1.3710 hc         1 E93       0.046450
     45 H21        -20.0490   -22.7320    -1.4720 hc         1 E93       0.046450
     46 H22        -19.8040   -24.4750    -1.4860 hc         1 E93       0.046450
     47 H23        -21.2450   -23.4790    -3.5060 hc         1 E93       0.044200
     48 H24        -19.9210   -24.5450    -3.9190 hc         1 E93       0.044200
     49 H6         -24.5880   -21.5170    -5.8010 ha         1 E93       0.219000
     50 H7         -23.9020   -21.6390    -8.6800 ha         1 E93       0.120000
@<TRIPOS>BOND
     1     1    12 1   
     2     1    27 1   
     3     1    28 1   
     4     1    29 1   
     5     2     3 ar  
     6     2    22 ar  
     7     2    30 1   
     8     3    23 ar  
     9     3    31 1   
    10     4     5 ar  
    11     4    23 ar  
    12     4    32 1   
    13     5    22 ar  
    14     5    33 1   
    15     6     7 ar  
    16     6    21 ar  
    17     6    34 1   
    18     7     8 ar  
    19     7    35 1   
    20     8    19 ar  
    21     8    24 1   
    22     9    10 1   
    23     9    24 1   
    24     9    36 1   
    25     9    37 1   
    26    10    11 1   
    27    10    15 1   
    28    10    38 1   
    29    11    13 1   
    30    11    39 1   
    31    11    40 1   
    32    12    25 1   
    33    12    41 1   
    34    12    42 1   
    35    13    14 1   
    36    13    43 1   
    37    13    44 1   
    38    14    15 1   
    39    14    45 1   
    40    14    46 1   
    41    15    47 1   
    42    15    48 1   
    43    16    17 1   
    44    16    25 1   
    45    16    26 2   
    46    17    18 2   
    47    17    24 1   
    48    18    19 1   
    49    18    49 1   
    50    19    20 ar  
    51    20    21 ar  
    52    20    50 1   
    53    21    22 1   
@<TRIPOS>SUBSTRUCTURE
     1 E93         1 TEMP              0 ****  ****    0 ROOT
