@<TRIPOS>MOLECULE
E94
   64    68     1     0     0
SMALL
bcc


@<TRIPOS>ATOM
      1 N3          -2.2310    -4.0080     0.7850 n1         1 E94      -0.388800
      2 C18         -1.9520    -2.8950     0.6440 cg         1 E94       0.267800
      3 C17         -1.6500    -1.5310     0.4680 cc         1 E94      -0.195000
      4 C7          -0.3330    -0.9880     0.4730 cc         1 E94       0.093000
      5 C3           0.8500    -1.8430     0.6880 ca         1 E94      -0.004000
      6 C2           1.2030    -2.7840    -0.2720 ca         1 E94      -0.095000
      7 C4           1.5940    -1.7340     1.8590 ca         1 E94      -0.094000
      8 C5           2.7000    -2.5440     2.0540 ca         1 E94      -0.126000
      9 C6           3.0760    -3.4730     1.0930 ca         1 E94      -0.121000
     10 C1           2.3150    -3.5840    -0.0590 ca         1 E94       0.024400
     11 CL           2.7610    -4.7440    -1.2670 cl         1 E94      -0.113400
     12 C9          -2.6450    -0.5660     0.3070 cd         1 E94       0.289500
     13 N1          -3.9610    -0.7450     0.2600 nu         1 E94      -0.740600
     14 C10         -4.9200     0.3390     0.2110 c3         1 E94       0.214800
     15 C11         -6.3210    -0.2310     0.0250 c3         1 E94       0.155800
     16 N2          -7.3280     0.8060     0.0280 n3         1 E94      -0.719600
     17 C16         -8.6410     0.2650     0.3470 c6         1 E94       0.166800
     18 C15         -9.6810     1.3670     0.4650 c6         1 E94      -0.075400
     19 C14         -9.7420     2.2010    -0.8080 c6         1 E94      -0.076400
     20 C13         -8.3490     2.6980    -1.1690 c6         1 E94      -0.075400
     21 C12         -7.3580     1.5460    -1.2260 c6         1 E94       0.166800
     22 S           -1.9490     1.0020     0.1700 ss         1 E94      -0.100800
     23 C8          -0.3240     0.3690     0.3140 cd         1 E94      -0.173600
     24 C19          0.8090     1.2740     0.2290 ca         1 E94       0.595800
     25 C22          0.6740     2.6630     0.3490 ca         1 E94      -0.430600
     26 C21          1.8370     3.3970     0.2560 ca         1 E94       0.479200
     27 N5           3.0370     2.8540     0.0820 nb         1 E94      -0.752000
     28 C20          3.0580     1.5280    -0.0110 ca         1 E94       0.918900
     29 N4           1.9980     0.7250     0.0310 nb         1 E94      -0.773000
     30 N6           4.2370     0.8610    -0.1670 nu         1 E94      -0.735300
     31 C23          5.5540     1.2960    -0.2400 ca         1 E94       0.218600
     32 C28          6.5310     0.2960    -0.3440 ca         1 E94      -0.227000
     33 C27          7.8660     0.6430    -0.4220 ca         1 E94      -0.058000
     34 C26          8.2690     1.9710    -0.4000 ca         1 E94      -0.258000
     35 C25          7.2970     2.9600    -0.2970 ca         1 E94       0.165100
     36 O            7.6030     4.2730    -0.2710 oh         1 E94      -0.494100
     37 C24          5.9440     2.6330    -0.2170 ca         1 E94      -0.197000
     38 H2           0.6290    -2.8760    -1.1850 ha         1 E94       0.153000
     39 H3           1.3130    -1.0090     2.6110 ha         1 E94       0.139000
     40 H4           3.2820    -2.4550     2.9620 ha         1 E94       0.136000
     41 H5           3.9420    -4.1030     1.2440 ha         1 E94       0.145000
     42 H6          -4.3090    -1.6770     0.4350 hn         1 E94       0.450800
     43 H7          -4.8860     0.9280     1.1330 h1         1 E94       0.060200
     44 H8          -4.6610     1.0040    -0.6180 h1         1 E94       0.060200
     45 H9          -6.3500    -0.8440    -0.8910 h1         1 E94       0.040700
     46 H10         -6.5200    -0.9070     0.8620 h1         1 E94       0.040700
     47 H20         -8.9700    -0.4660    -0.4130 h1         1 E94       0.031200
     48 H19         -8.5720    -0.2780     1.2930 h1         1 E94       0.031200
     49 H18        -10.6540     0.9200     0.6820 hc         1 E94       0.048450
     50 H17         -9.4300     2.0100     1.3140 hc         1 E94       0.048450
     51 H15        -10.1330     1.5870    -1.6270 hc         1 E94       0.041700
     52 H16        -10.4320     3.0380    -0.6890 hc         1 E94       0.041700
     53 H14         -8.3560     3.2100    -2.1340 hc         1 E94       0.048450
     54 H13         -8.0110     3.4260    -0.4250 hc         1 E94       0.048450
     55 H12         -6.3620     1.9390    -1.4380 h1         1 E94       0.031200
     56 H11         -7.6160     0.8790    -2.0690 h1         1 E94       0.031200
     57 H22         -0.2730     3.1550     0.5220 ha         1 E94       0.152000
     58 H21          1.8060     4.4780     0.3330 h4         1 E94       0.023100
     59 H23          4.1090    -0.1390    -0.2090 hn         1 E94       0.458800
     60 H28          6.2420    -0.7480    -0.3620 ha         1 E94       0.134000
     61 H27          8.6120    -0.1370    -0.5010 ha         1 E94       0.130000
     62 H26          9.3210     2.2270    -0.4610 ha         1 E94       0.132000
     63 H25          8.5570     4.3950    -0.3240 ho         1 E94       0.424000
     64 H24          5.2110     3.4200    -0.1390 ha         1 E94       0.181000
@<TRIPOS>BOND
     1     1     2 3   
     2     2     3 1   
     3     3     4 1   
     4     3    12 2   
     5     4     5 1   
     6     4    23 2   
     7     5     6 ar  
     8     5     7 ar  
     9     6    10 ar  
    10     6    38 1   
    11     7     8 ar  
    12     7    39 1   
    13     8     9 ar  
    14     8    40 1   
    15     9    10 ar  
    16     9    41 1   
    17    10    11 1   
    18    12    13 1   
    19    12    22 1   
    20    13    14 1   
    21    13    42 1   
    22    14    15 1   
    23    14    43 1   
    24    14    44 1   
    25    15    16 1   
    26    15    45 1   
    27    15    46 1   
    28    16    17 1   
    29    16    21 1   
    30    17    18 1   
    31    17    47 1   
    32    17    48 1   
    33    18    19 1   
    34    18    49 1   
    35    18    50 1   
    36    19    20 1   
    37    19    51 1   
    38    19    52 1   
    39    20    21 1   
    40    20    53 1   
    41    20    54 1   
    42    21    55 1   
    43    21    56 1   
    44    22    23 1   
    45    23    24 1   
    46    24    25 ar  
    47    24    29 ar  
    48    25    26 ar  
    49    25    57 1   
    50    26    27 ar  
    51    26    58 1   
    52    27    28 ar  
    53    28    29 ar  
    54    28    30 1   
    55    30    31 1   
    56    30    59 1   
    57    31    32 ar  
    58    31    37 ar  
    59    32    33 ar  
    60    32    60 1   
    61    33    34 ar  
    62    33    61 1   
    63    34    35 ar  
    64    34    62 1   
    65    35    36 1   
    66    35    37 ar  
    67    36    63 1   
    68    37    64 1   
@<TRIPOS>SUBSTRUCTURE
     1 E94         1 TEMP              0 ****  ****    0 ROOT
