@<TRIPOS>MOLECULE
E94
   64    68     1     0     0
SMALL
No Charge or Current Charge


@<TRIPOS>ATOM
      1 N3          -2.3330    -4.1120     0.5140 n1         1 E94      -0.478000
      2 C18         -2.0210    -2.9950     0.6400 cg         1 E94       0.357000
      3 C17         -1.6740    -1.6230     0.7820 cc         1 E94      -0.195000
      4 C7          -0.3520    -1.1970     1.1400 cc         1 E94       0.093000
      5 C3           0.8560    -2.0410     1.2580 ca         1 E94      -0.004000
      6 C2           1.0950    -3.1200     0.3760 ca         1 E94      -0.077000
      7 C4           1.7950    -1.7970     2.2870 ca         1 E94      -0.076000
      8 C5           2.9440    -2.5950     2.4230 ca         1 E94      -0.108000
      9 C6           3.1690    -3.6580     1.5340 ca         1 E94      -0.103000
     10 C1           2.2430    -3.9170     0.5130 ca         1 E94       0.116000
     11 Cl           2.5280    -5.2400    -0.6100 cl         1 E94      -0.205000
     12 C9          -2.5690    -0.5930     0.6670 cd         1 E94       0.283000
     13 N1          -3.9060    -0.7470     0.3540 nu         1 E94      -0.934200
     14 C10         -4.9020     0.3430     0.2400 c3         1 E94       0.214800
     15 C11         -6.3110    -0.1850    -0.1590 c3         1 E94       0.155800
     16 N2          -7.3980     0.8340    -0.1930 n3         1 E94      -0.719600
     17 C16         -8.7380     0.2030    -0.3630 c6         1 E94       0.166800
     18 C15         -9.8810     1.2440    -0.2680 c6         1 E94      -0.075400
     19 C14         -9.6840     2.3790    -1.2970 c6         1 E94      -0.076400
     20 C13         -8.2760     2.9960    -1.1400 c6         1 E94      -0.075400
     21 C12         -7.1760     1.9080    -1.2070 c6         1 E94       0.166800
     22 S           -1.8090     0.9720     1.0120 ss         1 E94       0.189000
     23 C8          -0.2340     0.1850     1.2220 cd         1 E94      -0.318500
     24 C19          0.9760     1.0270     1.2060 ca         1 E94       0.267500
     25 C22          0.9680     2.3110     1.7790 ca         1 E94      -0.282000
     26 C21          2.1270     3.0930     1.6570 ca         1 E94       0.150900
     27 N5           3.2060     2.6460     0.9900 nb         1 E94      -0.226000
     28 C20          3.1040     1.4240     0.4340 ca         1 E94       0.392900
     29 N4           2.0460     0.6020     0.5030 nb         1 E94      -0.247000
     30 N6           4.1950     0.9010    -0.2470 nu         1 E94      -0.928900
     31 C23          5.4380     1.3960    -0.6450 ca         1 E94       0.357000
     32 C28          6.4810     0.4780    -0.8450 ca         1 E94      -0.209000
     33 C27          7.7500     0.9150    -1.2570 ca         1 E94      -0.040000
     34 C26          7.9750     2.2830    -1.4820 ca         1 E94      -0.240000
     35 C25          6.9320     3.2010    -1.3000 ca         1 E94       0.165100
     36 O            7.1440     4.5250    -1.5320 oh         1 E94      -0.533100
     37 C24          5.6680     2.7610    -0.8880 ca         1 E94      -0.179000
     38 H2           0.4150    -3.3250    -0.4450 ha         1 E94       0.135000
     39 H3           1.6260    -0.9900     2.9960 ha         1 E94       0.121000
     40 H4           3.6550    -2.3930     3.2210 ha         1 E94       0.118000
     41 H5           4.0570    -4.2770     1.6350 ha         1 E94       0.127000
     42 H6          -4.2230    -1.7070     0.1930 hn         1 E94       0.506000
     43 H7          -4.9880     0.8710     1.2000 h1         1 E94       0.060200
     44 H8          -4.5630     1.0690    -0.5100 h1         1 E94       0.060200
     45 H9          -6.2310    -0.6740    -1.1400 h1         1 E94       0.040700
     46 H10         -6.5800    -0.9670     0.5640 h1         1 E94       0.040700
     47 H20         -8.7970    -0.3050    -1.3380 h1         1 E94       0.031200
     48 H19         -8.8990    -0.5630     0.4090 h1         1 E94       0.031200
     49 H18        -10.8480     0.7500    -0.4320 hc         1 E94       0.048450
     50 H17         -9.9100     1.6630     0.7480 hc         1 E94       0.048450
     51 H15         -9.8030     1.9820    -2.3150 hc         1 E94       0.041700
     52 H16        -10.4540     3.1500    -1.1640 hc         1 E94       0.041700
     53 H14         -8.1050     3.7470    -1.9230 hc         1 E94       0.048450
     54 H13         -8.2080     3.5250    -0.1790 hc         1 E94       0.048450
     55 H12         -6.2060     2.3990    -1.0490 h1         1 E94       0.031200
     56 H11         -7.1600     1.4760    -2.2190 h1         1 E94       0.031200
     57 H22          0.1050     2.6880     2.3190 ha         1 E94       0.134000
     58 H21          2.1930     4.0870     2.0960 h4         1 E94       0.023100
     59 H23          4.0880    -0.0970    -0.4210 hn         1 E94       0.514000
     60 H28          6.3140    -0.5820    -0.6710 ha         1 E94       0.116000
     61 H27          8.5560     0.1970    -1.4020 ha         1 E94       0.112000
     62 H26          8.9590     2.6190    -1.8030 ha         1 E94       0.114000
     63 H25          8.0760     4.6410    -1.8130 ho         1 E94       0.463000
     64 H24          4.8690     3.4840    -0.7780 ha         1 E94       0.163000
@<TRIPOS>BOND
     1     1     2 3   
     2     2     3 1   
     3     3     4 1   
     4     3    12 2   
     5     4     5 1   
     6     4    23 2   
     7     5     6 ar  
     8     5     7 ar  
     9     6    10 ar  
    10     6    38 1   
    11     7     8 ar  
    12     7    39 1   
    13     8     9 ar  
    14     8    40 1   
    15     9    10 ar  
    16     9    41 1   
    17    10    11 1   
    18    12    13 1   
    19    12    22 1   
    20    13    14 1   
    21    13    42 1   
    22    14    15 1   
    23    14    43 1   
    24    14    44 1   
    25    15    16 1   
    26    15    45 1   
    27    15    46 1   
    28    16    17 1   
    29    16    21 1   
    30    17    18 1   
    31    17    47 1   
    32    17    48 1   
    33    18    19 1   
    34    18    49 1   
    35    18    50 1   
    36    19    20 1   
    37    19    51 1   
    38    19    52 1   
    39    20    21 1   
    40    20    53 1   
    41    20    54 1   
    42    21    55 1   
    43    21    56 1   
    44    22    23 1   
    45    23    24 1   
    46    24    25 ar  
    47    24    29 ar  
    48    25    26 ar  
    49    25    57 1   
    50    26    27 ar  
    51    26    58 1   
    52    27    28 ar  
    53    28    29 ar  
    54    28    30 1   
    55    30    31 1   
    56    30    59 1   
    57    31    32 ar  
    58    31    37 ar  
    59    32    33 ar  
    60    32    60 1   
    61    33    34 ar  
    62    33    61 1   
    63    34    35 ar  
    64    34    62 1   
    65    35    36 1   
    66    35    37 ar  
    67    36    63 1   
    68    37    64 1   
@<TRIPOS>SUBSTRUCTURE
     1 E94         1 TEMP              0 ****  ****    0 ROOT
