@<TRIPOS>MOLECULE
E95
   29    30     1     0     0
SMALL
bcc


@<TRIPOS>ATOM
      1 C10          2.3810    -2.1330    -0.4200 ca         1 E95      -0.187000
      2 N01          1.7970     1.8650     0.2040 na         1 E95      -0.186400
      3 C02          0.4560     1.9770    -0.0460 cc         1 E95      -0.147100
      4 C03         -0.0730     0.7560    -0.3620 cd         1 E95      -0.072400
      5 C04          1.0210    -0.1680    -0.3110 ca         1 E95      -0.078800
      6 C05          2.1750     0.5640     0.0430 ca         1 E95      -0.049200
      7 C06          3.4420    -0.0170     0.1780 ca         1 E95      -0.118300
      8 C07          4.6360     0.8050     0.5560 c3         1 E95      -0.031800
      9 C08          3.5130    -1.3770    -0.0620 ca         1 E95      -0.116000
     10 C09          1.1400    -1.5450    -0.5430 ca         1 E95      -0.045000
     11 C11         -1.5000     0.4750    -0.7030 c3         1 E95       0.001800
     12 C12         -2.3720     0.0380     0.4830 c3         1 E95       0.018500
     13 N13         -1.8230    -1.1570     1.0980 n8         1 E95      -0.879800
     14 C14         -3.8540    -0.0570     0.0340 c          1 E95       0.900600
     15 O15         -4.4330    -1.1530     0.1680 o          1 E95      -0.841300
     16 OXT         -4.3530     0.9920    -0.4260 o          1 E95      -0.841300
     17 H1           2.4950    -3.1950    -0.5960 ha         1 E95       0.115000
     18 H2           2.4020     2.6320     0.4420 hn         1 E95       0.282700
     19 H3          -0.0320     2.9380     0.0150 h4         1 E95       0.157000
     20 H4           4.5090     1.2760     1.5330 hc         1 E95       0.027700
     21 H5           5.5370     0.1940     0.5980 hc         1 E95       0.027700
     22 H6           4.8140     1.6080    -0.1630 hc         1 E95       0.027700
     23 H7           4.4720    -1.8750     0.0270 ha         1 E95       0.108000
     24 H8           0.2750    -2.1370    -0.8140 ha         1 E95       0.141000
     25 H9          -1.9500     1.3670    -1.1410 hc         1 E95       0.048200
     26 H10         -1.5460    -0.2990    -1.4790 hc         1 E95       0.048200
     27 H11         -2.3180     0.8430     1.2280 h1         1 E95       0.040700
     28 H12         -2.4460    -1.4510     1.8410 hn         1 E95       0.323800
     29 H13         -1.8660    -1.9130     0.4250 hn         1 E95       0.323800
@<TRIPOS>BOND
     1     1     9 ar  
     2     1    10 ar  
     3     1    17 1   
     4     2     3 1   
     5     2     6 1   
     6     2    18 1   
     7     3     4 2   
     8     3    19 1   
     9     4     5 1   
    10     4    11 1   
    11     5     6 ar  
    12     5    10 ar  
    13     6     7 ar  
    14     7     8 1   
    15     7     9 ar  
    16     8    20 1   
    17     8    21 1   
    18     8    22 1   
    19     9    23 1   
    20    10    24 1   
    21    11    12 1   
    22    11    25 1   
    23    11    26 1   
    24    12    13 1   
    25    12    14 1   
    26    12    27 1   
    27    13    28 1   
    28    13    29 1   
    29    14    15 1   
    30    14    16 1   
@<TRIPOS>SUBSTRUCTURE
     1 E95         1 TEMP              0 ****  ****    0 ROOT
