@<TRIPOS>MOLECULE
E95
   29    30     1     0     0
SMALL
No Charge or Current Charge


@<TRIPOS>ATOM
      1 C10          2.5030    -2.1670    -0.4950 ca         1 E95      -0.169000
      2 N01          1.7680     1.8510     0.2330 na         1 E95      -0.236700
      3 C02          0.3820     1.9600    -0.0060 cc         1 E95      -0.197100
      4 C03         -0.0320     0.6780    -0.3550 cd         1 E95      -0.072400
      5 C04          1.1080    -0.2140    -0.3330 ca         1 E95      -0.078800
      6 C05          2.1850     0.5460     0.0300 ca         1 E95      -0.049200
      7 C06          3.4740    -0.0010     0.1490 ca         1 E95      -0.118300
      8 C07          4.6660     0.8550     0.5520 c3         1 E95      -0.031800
      9 C08          3.6210    -1.3820    -0.1210 ca         1 E95      -0.098000
     10 C09          1.2230    -1.5840    -0.6050 ca         1 E95      -0.027000
     11 C11         -1.4450     0.3020    -0.7430 c3         1 E95       0.001800
     12 C12         -2.4010     0.0810     0.4630 c3         1 E95       0.018500
     13 N13         -1.9980    -1.1270     1.2800 n8         1 E95      -0.990200
     14 C14         -3.9030     0.1020    -0.0360 c          1 E95       0.690000
     15 O15         -4.3310    -0.8740    -0.6400 o          1 E95      -0.736000
     16 OXT         -4.6100     1.0440     0.2930 o          1 E95      -0.736000
     17 H1           2.6320    -3.2280    -0.6980 ha         1 E95       0.097000
     18 H2           2.3790     2.6140     0.5090 hn         1 E95       0.333000
     19 H3          -0.1700     2.8910     0.0790 h4         1 E95       0.207000
     20 H4           4.5110     1.3030     1.5410 hc         1 E95       0.027700
     21 H5           5.5910     0.2670     0.5970 hc         1 E95       0.027700
     22 H6           4.8250     1.6690    -0.1650 hc         1 E95       0.027700
     23 H7           4.5990    -1.8510    -0.0420 ha         1 E95       0.090000
     24 H8           0.3580    -2.1790    -0.8890 ha         1 E95       0.123000
     25 H9          -1.8590     1.1050    -1.3660 hc         1 E95       0.048200
     26 H10         -1.4450    -0.5920    -1.3770 hc         1 E95       0.048200
     27 H11         -2.2880     0.9540     1.1200 h1         1 E95       0.040700
     28 H12         -2.6190    -1.2000     2.0940 hn         1 E95       0.379000
     29 H13         -2.2220    -1.9700     0.7390 hn         1 E95       0.379000
@<TRIPOS>BOND
     1     1     9 ar  
     2     1    10 ar  
     3     1    17 1   
     4     2     3 1   
     5     2     6 1   
     6     2    18 1   
     7     3     4 2   
     8     3    19 1   
     9     4     5 1   
    10     4    11 1   
    11     5     6 ar  
    12     5    10 ar  
    13     6     7 ar  
    14     7     8 1   
    15     7     9 ar  
    16     8    20 1   
    17     8    21 1   
    18     8    22 1   
    19     9    23 1   
    20    10    24 1   
    21    11    12 1   
    22    11    25 1   
    23    11    26 1   
    24    12    13 1   
    25    12    14 1   
    26    12    27 1   
    27    13    28 1   
    28    13    29 1   
    29    14    15 1   
    30    14    16 1   
@<TRIPOS>SUBSTRUCTURE
     1 E95         1 TEMP              0 ****  ****    0 ROOT
