@<TRIPOS>MOLECULE
E96
   50    55     1     0     0
SMALL
No Charge or Current Charge


@<TRIPOS>ATOM
      1 OA          -0.4010    -0.7730    10.8040 oh         1 E96      -0.527100
      2 C1A         -0.2220    -0.5670     9.4690 ca         1 E96       0.156100
      3 C2A          1.0110    -0.1010     8.9980 ca         1 E96      -0.182500
      4 C3A          1.2080     0.1150     7.6230 ca         1 E96      -0.041000
      5 C4A         -1.2650    -0.8200     8.5660 ca         1 E96      -0.182500
      6 C5A         -1.0740    -0.6050     7.1890 ca         1 E96      -0.041000
      7 C6A          0.1670    -0.1350     6.6990 ca         1 E96      -0.156400
      8 C1B          0.3810     0.0940     5.2610 cc         1 E96       0.483400
      9 N2B         -0.5850    -0.1240     4.2790 na         1 E96      -0.311600
     10 N3B          1.5300     0.5410     4.7110 nd         1 E96      -0.580100
     11 C4B          1.2540     0.5960     3.3480 ca         1 E96       0.077400
     12 C5B         -0.0210     0.1970     3.0840 ca         1 E96      -0.081200
     13 C6B         -0.5560     0.1560     1.7920 ca         1 E96      -0.103500
     14 C7B          2.1040     0.9940     2.3080 ca         1 E96      -0.052000
     15 C8B          1.6050     0.9670     0.9870 ca         1 E96      -0.125000
     16 C9B          0.2680     0.5490     0.7010 cp         1 E96      -0.017000
     17 C9C         -0.2490     0.5250    -0.7050 cp         1 E96      -0.017000
     18 C8C         -1.6160     0.8220    -0.9910 ca         1 E96      -0.125000
     19 C7C         -2.1120     0.8010    -2.3130 ca         1 E96      -0.052000
     20 C6C          0.6060     0.2060    -1.7950 ca         1 E96      -0.103500
     21 C5C          0.0740     0.1960    -3.0910 ca         1 E96      -0.081200
     22 C4C         -1.2310     0.4800    -3.3540 ca         1 E96       0.077400
     23 N3C         -1.5040     0.4010    -4.7070 nc         1 E96      -0.580100
     24 N2C          0.7030    -0.0840    -4.2720 na         1 E96      -0.311600
     25 C1C         -0.3090     0.0570    -5.2340 cd         1 E96       0.483400
     26 C6D         -0.1210    -0.1440    -6.6900 ca         1 E96      -0.156400
     27 C5D         -1.2010     0.0190    -7.5890 ca         1 E96      -0.041000
     28 C4D         -1.0180    -0.1730    -8.9690 ca         1 E96      -0.182500
     29 C3D          1.1430    -0.5050    -7.2120 ca         1 E96      -0.041000
     30 C2D          1.3200    -0.6960    -8.5940 ca         1 E96      -0.182500
     31 C1D          0.2390    -0.5290    -9.4710 ca         1 E96       0.156100
     32 OD           0.4030    -0.7130   -10.8110 oh         1 E96      -0.527100
     33 HOA         -1.3150    -1.0960    10.9480 ho         1 E96       0.468000
     34 H2A          1.8190     0.0950     9.6980 ha         1 E96       0.125000
     35 H3A          2.1750     0.4780     7.2800 ha         1 E96       0.123500
     36 H4A         -2.2260    -1.1820     8.9220 ha         1 E96       0.125000
     37 H5A         -1.9000    -0.8100     6.5120 ha         1 E96       0.123500
     38 H2B         -1.5240    -0.4580     4.4380 hn         1 E96       0.356000
     39 H6B         -1.5760    -0.1840     1.6320 ha         1 E96       0.120000
     40 H7B          3.1210     1.3160     2.5160 ha         1 E96       0.129000
     41 H8B          2.2560     1.2880     0.1780 ha         1 E96       0.114000
     42 H8C         -2.2940     1.0840    -0.1840 ha         1 E96       0.114000
     43 H7C         -3.1530     1.0320    -2.5210 ha         1 E96       0.129000
     44 H6C          1.6510    -0.0410    -1.6320 ha         1 E96       0.120000
     45 H2C          1.6680    -0.3330    -4.4320 hn         1 E96       0.356000
     46 H5D         -2.1890     0.2960    -7.2250 ha         1 E96       0.123500
     47 H4D         -1.8570    -0.0440    -9.6500 ha         1 E96       0.125000
     48 H3D          1.9990    -0.6410    -6.5550 ha         1 E96       0.123500
     49 H2D          2.3000    -0.9730    -8.9740 ha         1 E96       0.125000
     50 HOD          1.3390    -0.9560   -10.9780 ho         1 E96       0.468000
@<TRIPOS>BOND
     1     1     2 1   
     2     1    33 1   
     3     2     3 ar  
     4     2     5 ar  
     5     3     4 ar  
     6     3    34 1   
     7     4     7 ar  
     8     4    35 1   
     9     5     6 ar  
    10     5    36 1   
    11     6     7 ar  
    12     6    37 1   
    13     7     8 1   
    14     8     9 1   
    15     8    10 2   
    16     9    12 1   
    17     9    38 1   
    18    10    11 1   
    19    11    12 ar  
    20    11    14 ar  
    21    12    13 ar  
    22    13    16 ar  
    23    13    39 1   
    24    14    15 ar  
    25    14    40 1   
    26    15    16 ar  
    27    15    41 1   
    28    16    17 1   
    29    17    18 ar  
    30    17    20 ar  
    31    18    19 ar  
    32    18    42 1   
    33    19    22 ar  
    34    19    43 1   
    35    20    21 ar  
    36    20    44 1   
    37    21    22 ar  
    38    21    24 1   
    39    22    23 1   
    40    23    25 2   
    41    24    25 1   
    42    24    45 1   
    43    25    26 1   
    44    26    27 ar  
    45    26    29 ar  
    46    27    28 ar  
    47    27    46 1   
    48    28    31 ar  
    49    28    47 1   
    50    29    30 ar  
    51    29    48 1   
    52    30    31 ar  
    53    30    49 1   
    54    31    32 1   
    55    32    50 1   
@<TRIPOS>SUBSTRUCTURE
     1 E96         1 TEMP              0 ****  ****    0 ROOT
