@<TRIPOS>MOLECULE
E96
   50    55     1     0     0
SMALL
bcc


@<TRIPOS>ATOM
      1 OA          -0.2770    -0.7030    10.6970 oh         1 E96      -0.488100
      2 C1A         -0.1800    -0.5330     9.3700 ca         1 E96       0.156100
      3 C2A          1.0400    -0.0840     8.8600 ca         1 E96      -0.200500
      4 C3A          1.1910     0.1070     7.5020 ca         1 E96      -0.059000
      5 C4A         -1.2350    -0.7850     8.4960 ca         1 E96      -0.200500
      6 C5A         -1.0710    -0.5890     7.1360 ca         1 E96      -0.059000
      7 C6A          0.1420    -0.1420     6.6130 ca         1 E96      -0.156400
      8 C1B          0.3440     0.0830     5.1870 cc         1 E96       0.483400
      9 N2B         -0.5980    -0.2020     4.2440 na         1 E96      -0.261300
     10 N3B          1.4340     0.5850     4.6620 nd         1 E96      -0.580100
     11 C4B          1.2030     0.6340     3.3130 ca         1 E96       0.077400
     12 C5B         -0.0810     0.1420     3.0250 ca         1 E96      -0.081200
     13 C6B         -0.5880     0.0670     1.7370 ca         1 E96      -0.121500
     14 C7B          2.0150     1.0740     2.2680 ca         1 E96      -0.070000
     15 C8B          1.5150     1.0080     0.9820 ca         1 E96      -0.143000
     16 C9B          0.2250     0.5120     0.6980 cp         1 E96      -0.017000
     17 C9C         -0.2610     0.4730    -0.6970 cp         1 E96      -0.017000
     18 C8C         -1.6140     0.7570    -0.9810 ca         1 E96      -0.143000
     19 C7C         -2.1190     0.7430    -2.2660 ca         1 E96      -0.070000
     20 C6C          0.6120     0.1660    -1.7370 ca         1 E96      -0.121500
     21 C5C          0.0980     0.1580    -3.0250 ca         1 E96      -0.081200
     22 C4C         -1.2480     0.4390    -3.3110 ca         1 E96       0.077400
     23 N3C         -1.4700     0.3560    -4.6600 nc         1 E96      -0.580100
     24 N2C          0.6620    -0.0990    -4.2450 na         1 E96      -0.261300
     25 C1C         -0.3140     0.0370    -5.1870 cd         1 E96       0.483400
     26 C6D         -0.0820    -0.1490    -6.6140 ca         1 E96      -0.156400
     27 C5D         -1.0990     0.1660    -7.5190 ca         1 E96      -0.059000
     28 C4D         -0.9220     0.0070    -8.8780 ca         1 E96      -0.200500
     29 C3D          1.1230    -0.6350    -7.1200 ca         1 E96      -0.059000
     30 C2D          1.3120    -0.7990    -8.4810 ca         1 E96      -0.200500
     31 C1D          0.2890    -0.4790    -9.3720 ca         1 E96       0.156100
     32 OD           0.4120    -0.6160   -10.7010 oh         1 E96      -0.488100
     33 HOA         -1.1610    -1.0000    10.9400 ho         1 E96       0.429000
     34 H2A          1.8640     0.1140     9.5330 ha         1 E96       0.143000
     35 H3A          2.1410     0.4560     7.1190 ha         1 E96       0.141500
     36 H4A         -2.1880    -1.1330     8.8750 ha         1 E96       0.143000
     37 H5A         -1.9190    -0.7900     6.4940 ha         1 E96       0.141500
     38 H2B         -1.5040    -0.6140     4.4010 hn         1 E96       0.305700
     39 H6B         -1.5720    -0.3420     1.5460 ha         1 E96       0.138000
     40 H7B          3.0050     1.4670     2.4610 ha         1 E96       0.147000
     41 H8B          2.1270     1.3710     0.1660 ha         1 E96       0.132000
     42 H8C         -2.2770     1.0180    -0.1660 ha         1 E96       0.132000
     43 H7C         -3.1590     0.9730    -2.4570 ha         1 E96       0.147000
     44 H6C          1.6500    -0.0760    -1.5480 ha         1 E96       0.138000
     45 H2C          1.6340    -0.3020    -4.4110 hn         1 E96       0.305700
     46 H5D         -2.0410     0.5470    -7.1480 ha         1 E96       0.141500
     47 H4D         -1.7200     0.2610    -9.5650 ha         1 E96       0.143000
     48 H3D          1.9390    -0.9060    -6.4630 ha         1 E96       0.141500
     49 H2D          2.2570    -1.1820    -8.8480 ha         1 E96       0.143000
     50 HOD          1.2900    -0.9410   -10.9310 ho         1 E96       0.429000
@<TRIPOS>BOND
     1     1     2 1   
     2     1    33 1   
     3     2     3 ar  
     4     2     5 ar  
     5     3     4 ar  
     6     3    34 1   
     7     4     7 ar  
     8     4    35 1   
     9     5     6 ar  
    10     5    36 1   
    11     6     7 ar  
    12     6    37 1   
    13     7     8 1   
    14     8     9 1   
    15     8    10 2   
    16     9    12 1   
    17     9    38 1   
    18    10    11 1   
    19    11    12 ar  
    20    11    14 ar  
    21    12    13 ar  
    22    13    16 ar  
    23    13    39 1   
    24    14    15 ar  
    25    14    40 1   
    26    15    16 ar  
    27    15    41 1   
    28    16    17 1   
    29    17    18 ar  
    30    17    20 ar  
    31    18    19 ar  
    32    18    42 1   
    33    19    22 ar  
    34    19    43 1   
    35    20    21 ar  
    36    20    44 1   
    37    21    22 ar  
    38    21    24 1   
    39    22    23 1   
    40    23    25 2   
    41    24    25 1   
    42    24    45 1   
    43    25    26 1   
    44    26    27 ar  
    45    26    29 ar  
    46    27    28 ar  
    47    27    46 1   
    48    28    31 ar  
    49    28    47 1   
    50    29    30 ar  
    51    29    48 1   
    52    30    31 ar  
    53    30    49 1   
    54    31    32 1   
    55    32    50 1   
@<TRIPOS>SUBSTRUCTURE
     1 E96         1 TEMP              0 ****  ****    0 ROOT
