@<TRIPOS>MOLECULE
E97
   84    89     1     0     0
SMALL
bcc


@<TRIPOS>ATOM
      1 C1          -2.8030    -0.6620    -2.1860 ca         1 E97      -0.069000
      2 C2          -1.9330    -0.5130    -3.2650 ca         1 E97       0.075400
      3 C3          -2.2580    -0.8550    -0.9310 ca         1 E97      -0.143000
      4 C4          -0.8650    -0.9000    -0.7100 cp         1 E97      -0.011000
      5 C5           0.0080    -0.7540    -1.7840 ca         1 E97      -0.128000
      6 C6          -0.5470    -0.5680    -3.0410 ca         1 E97      -0.080200
      7 C7          -0.3370    -1.0960     0.6570 cp         1 E97      -0.058000
      8 C8           0.8360    -1.8550     0.8580 ca         1 E97      -0.103000
      9 C9           1.3820    -2.0580     2.1110 ca         1 E97      -0.135000
     10 C10          0.7210    -1.4790     3.1860 ca         1 E97      -0.079200
     11 C11         -0.9850    -0.5300     1.7500 ca         1 E97      -0.055000
     12 C12         -0.4530    -0.7260     3.0220 ca         1 E97       0.073400
     13 N13          0.9600    -1.4600     4.5320 na         1 E97      -0.260300
     14 C14         -0.0290    -0.7260     5.1150 cc         1 E97       0.483400
     15 N15         -0.8910    -0.2720     4.2390 nd         1 E97      -0.578100
     16 N16         -2.1870    -0.3080    -4.5950 nc         1 E97      -0.578100
     17 C17         -1.0120    -0.2380    -5.1700 cd         1 E97       0.482400
     18 N18          0.0080    -0.3890    -4.2780 na         1 E97      -0.262300
     19 C19         -0.1030    -0.4790     6.5500 ca         1 E97      -0.157900
     20 C20         -1.2140     0.1880     7.0770 ca         1 E97      -0.061000
     21 C21         -1.3130     0.4460     8.4270 ca         1 E97      -0.198500
     22 C22         -0.2950     0.0460     9.3000 ca         1 E97       0.165100
     23 C23          0.9010    -0.8760     7.4280 ca         1 E97      -0.061000
     24 C24          0.8150    -0.6220     8.7880 ca         1 E97      -0.198500
     25 C25         -0.8000    -0.0200    -6.5960 ca         1 E97      -0.156900
     26 C26         -1.8850     0.3340    -7.4060 ca         1 E97      -0.061500
     27 C27         -1.7210     0.5500    -8.7570 ca         1 E97      -0.198500
     28 C28         -0.4590     0.4160    -9.3470 ca         1 E97       0.163100
     29 C29          0.6280     0.0580    -8.5520 ca         1 E97      -0.198500
     30 C30          0.4490    -0.1550    -7.1940 ca         1 E97      -0.061500
     31 O31         -0.3910     0.6470   -10.6660 os         1 E97      -0.318900
     32 C32          0.8570     0.4870   -11.3270 c3         1 E97       0.140400
     33 C33          0.6590     0.7920   -12.7970 c3         1 E97      -0.084400
     34 C34          1.9610     0.5750   -13.5590 c3         1 E97       0.167800
     35 N35          1.8880     0.9860   -14.9480 n3         1 E97      -0.710600
     36 O36         -0.4710     0.3440    10.5960 os         1 E97      -0.319900
     37 C37          0.5530     0.0150    11.5250 c3         1 E97       0.140400
     38 C38          0.1300     0.5150    12.8900 c3         1 E97      -0.084400
     39 C39          1.2220     0.2380    13.9150 c3         1 E97       0.167800
     40 N40          0.8480     0.5990    15.2690 n3         1 E97      -0.710600
     41 C41          1.7940     0.0600    16.2230 c3         1 E97       0.149100
     42 C42          0.7070     2.0300    15.4410 c3         1 E97       0.149100
     43 C43          3.2070     1.0300   -15.5430 c3         1 E97       0.148600
     44 C44          1.0070     0.1450   -15.7310 c3         1 E97       0.148600
     45 H1          -3.8760    -0.6380    -2.3270 ha         1 E97       0.147000
     46 H3          -2.9260    -0.9930    -0.0910 ha         1 E97       0.136000
     47 H5           1.0810    -0.7610    -1.6420 ha         1 E97       0.135000
     48 H8           1.3170    -2.3150     0.0050 ha         1 E97       0.131000
     49 H9           2.2780    -2.6510     2.2400 ha         1 E97       0.134000
     50 H11         -1.8750     0.0740     1.6220 ha         1 E97       0.151000
     51 H13          1.7310    -1.9110     4.9960 hn         1 E97       0.304700
     52 H18          0.9940    -0.3440    -4.4770 hn         1 E97       0.303700
     53 H20         -2.0090     0.5070     6.4170 ha         1 E97       0.140000
     54 H21         -2.1790     0.9610     8.8200 ha         1 E97       0.143500
     55 H23          1.7860    -1.3880     7.0720 ha         1 E97       0.140000
     56 H24          1.6250    -0.9490     9.4260 ha         1 E97       0.143500
     57 H26         -2.8670     0.4430    -6.9670 ha         1 E97       0.140000
     58 H27         -2.5690     0.8260    -9.3700 ha         1 E97       0.143500
     59 H29          1.6180    -0.0630    -8.9690 ha         1 E97       0.143500
     60 H30          1.3190    -0.4410    -6.6160 ha         1 E97       0.140000
     61 H321         1.6030     1.1630   -10.8950 h1         1 E97       0.034700
     62 H322         1.2230    -0.5380   -11.1950 h1         1 E97       0.034700
     63 H331        -0.1340     0.1510   -13.1900 hc         1 E97       0.065200
     64 H332         0.3370     1.8280   -12.9230 hc         1 E97       0.065200
     65 H341         2.7470     1.1660   -13.0800 h1         1 E97       0.028700
     66 H342         2.2690    -0.4820   -13.4630 h1         1 E97       0.028700
     67 H371         1.4970     0.4840    11.2250 h1         1 E97       0.034700
     68 H372         0.7120    -1.0690    11.5450 h1         1 E97       0.034700
     69 H381        -0.7930     0.0200    13.2030 hc         1 E97       0.064700
     70 H382        -0.0760     1.5860    12.8240 hc         1 E97       0.064700
     71 H391         2.1520     0.7490    13.6060 h1         1 E97       0.028200
     72 H392         1.4450    -0.8330    13.9050 h1         1 E97       0.028200
     73 H411         1.4860     0.3150    17.2380 h1         1 E97       0.031533
     74 H412         1.8270    -1.0280    16.1470 h1         1 E97       0.031533
     75 H413         2.8200     0.4360    16.0830 h1         1 E97       0.031533
     76 H421        -0.0910     2.4250    14.8130 h1         1 E97       0.031533
     77 H422         0.4440     2.2520    16.4750 h1         1 E97       0.031533
     78 H423         1.6280     2.5860    15.2020 h1         1 E97       0.031533
     79 H431         3.1420     1.4020   -16.5660 h1         1 E97       0.031700
     80 H432         3.8510     1.7100   -14.9820 h1         1 E97       0.031700
     81 H433         3.7060     0.0480   -15.5770 h1         1 E97       0.031700
     82 H441         0.9900     0.4920   -16.7650 h1         1 E97       0.031700
     83 H442         1.3160    -0.9120   -15.7380 h1         1 E97       0.031700
     84 H443        -0.0160     0.1910   -15.3590 h1         1 E97       0.031700
@<TRIPOS>BOND
     1     1     2 ar  
     2     1     3 ar  
     3     1    45 1   
     4     2     6 ar  
     5     2    16 1   
     6     3     4 ar  
     7     3    46 1   
     8     4     5 ar  
     9     4     7 1   
    10     5     6 ar  
    11     5    47 1   
    12     6    18 1   
    13     7     8 ar  
    14     7    11 ar  
    15     8     9 ar  
    16     8    48 1   
    17     9    10 ar  
    18     9    49 1   
    19    10    12 ar  
    20    10    13 1   
    21    11    12 ar  
    22    11    50 1   
    23    12    15 1   
    24    13    14 1   
    25    13    51 1   
    26    14    15 2   
    27    14    19 1   
    28    16    17 2   
    29    17    18 1   
    30    17    25 1   
    31    18    52 1   
    32    19    20 ar  
    33    19    23 ar  
    34    20    21 ar  
    35    20    53 1   
    36    21    22 ar  
    37    21    54 1   
    38    22    24 ar  
    39    22    36 1   
    40    23    24 ar  
    41    23    55 1   
    42    24    56 1   
    43    25    26 ar  
    44    25    30 ar  
    45    26    27 ar  
    46    26    57 1   
    47    27    28 ar  
    48    27    58 1   
    49    28    29 ar  
    50    28    31 1   
    51    29    30 ar  
    52    29    59 1   
    53    30    60 1   
    54    31    32 1   
    55    32    33 1   
    56    32    61 1   
    57    32    62 1   
    58    33    34 1   
    59    33    63 1   
    60    33    64 1   
    61    34    35 1   
    62    34    65 1   
    63    34    66 1   
    64    35    43 1   
    65    35    44 1   
    66    36    37 1   
    67    37    38 1   
    68    37    67 1   
    69    37    68 1   
    70    38    39 1   
    71    38    69 1   
    72    38    70 1   
    73    39    40 1   
    74    39    71 1   
    75    39    72 1   
    76    40    41 1   
    77    40    42 1   
    78    41    73 1   
    79    41    74 1   
    80    41    75 1   
    81    42    76 1   
    82    42    77 1   
    83    42    78 1   
    84    43    79 1   
    85    43    80 1   
    86    43    81 1   
    87    44    82 1   
    88    44    83 1   
    89    44    84 1   
@<TRIPOS>SUBSTRUCTURE
     1 E97         1 TEMP              0 ****  ****    0 ROOT
