@<TRIPOS>MOLECULE
E97
   84    89     1     0     0
SMALL
No Charge or Current Charge


@<TRIPOS>ATOM
      1 C1          -2.7660    -0.5090    -2.2420 ca         1 E97      -0.051000
      2 C2          -1.8780    -0.4260    -3.3220 ca         1 E97       0.075400
      3 C3          -2.2380    -0.6800    -0.9440 ca         1 E97      -0.125000
      4 C4          -0.8320    -0.7710    -0.7200 cp         1 E97      -0.011000
      5 C5           0.0300    -0.6830    -1.8480 ca         1 E97      -0.110000
      6 C6          -0.5340    -0.5120    -3.1180 ca         1 E97      -0.080200
      7 C7          -0.2790    -0.9530     0.6600 cp         1 E97      -0.058000
      8 C8           0.8980    -1.7320     0.8830 ca         1 E97      -0.085000
      9 C9           1.4260    -1.9090     2.1790 ca         1 E97      -0.117000
     10 C10          0.7540    -1.2920     3.2370 ca         1 E97      -0.079200
     11 C11         -0.9140    -0.3540     1.7870 ca         1 E97      -0.037000
     12 C12         -0.3700    -0.5430     3.0650 ca         1 E97       0.073400
     13 N13          1.0280    -1.2880     4.5690 na         1 E97      -0.310600
     14 C14          0.0440    -0.5180     5.1880 cc         1 E97       0.483400
     15 N15         -0.8350    -0.0440     4.2790 nd         1 E97      -0.578100
     16 N16         -2.1770    -0.2590    -4.6610 nc         1 E97      -0.578100
     17 C17         -0.9580    -0.2480    -5.2420 cd         1 E97       0.482400
     18 N18          0.0950    -0.4000    -4.3260 na         1 E97      -0.312600
     19 C19         -0.0180    -0.2630     6.6360 ca         1 E97      -0.157900
     20 C20         -1.0550     0.5320     7.1750 ca         1 E97      -0.043000
     21 C21         -1.1220     0.7800     8.5560 ca         1 E97      -0.180500
     22 C22         -0.1610     0.2440     9.4250 ca         1 E97       0.165100
     23 C23          0.9480    -0.8010     7.5170 ca         1 E97      -0.043000
     24 C24          0.8780    -0.5510     8.8990 ca         1 E97      -0.180500
     25 C25         -0.7850    -0.0880    -6.7040 ca         1 E97      -0.156900
     26 C26         -1.9050     0.0610    -7.5540 ca         1 E97      -0.043500
     27 C27         -1.7360     0.2130    -8.9410 ca         1 E97      -0.180500
     28 C28         -0.4540     0.2190    -9.5070 ca         1 E97       0.163100
     29 C29          0.6710     0.0710    -8.6710 ca         1 E97      -0.180500
     30 C30          0.5060    -0.0800    -7.2820 ca         1 E97      -0.043500
     31 O31         -0.3530     0.3710   -10.8740 os         1 E97      -0.342100
     32 C32          0.9160     0.3900   -11.5510 c3         1 E97       0.163600
     33 C33          0.6410     0.5740   -13.0530 c3         1 E97      -0.084400
     34 C34          1.9390     0.6050   -13.8880 c3         1 E97       0.167800
     35 N35          1.7500     0.9310   -15.3250 n3         1 E97      -0.710600
     36 O36         -0.2800     0.5230    10.7700 os         1 E97      -0.343100
     37 C37          0.6530     0.0200    11.7420 c3         1 E97       0.163600
     38 C38          0.2090     0.5300    13.1240 c3         1 E97      -0.084400
     39 C39          1.1460     0.0540    14.2550 c3         1 E97       0.167800
     40 N40          0.6870     0.3870    15.6270 n3         1 E97      -0.710600
     41 C41          1.4910    -0.3000    16.6630 c3         1 E97       0.149100
     42 C42          0.5790     1.8420    15.8910 c3         1 E97       0.149100
     43 C43          3.0370     1.1830   -16.0110 c3         1 E97       0.148600
     44 C44          0.9180    -0.0520   -16.0610 c3         1 E97       0.148600
     45 H1          -3.8390    -0.4440    -2.4030 ha         1 E97       0.129000
     46 H3          -2.9270    -0.7580    -0.1080 ha         1 E97       0.118000
     47 H5           1.1100    -0.7330    -1.7320 ha         1 E97       0.117000
     48 H8           1.3970    -2.2130     0.0460 ha         1 E97       0.113000
     49 H9           2.3210    -2.5040     2.3450 ha         1 E97       0.116000
     50 H11         -1.8040     0.2580     1.6680 ha         1 E97       0.133000
     51 H13          1.7970    -1.7510     5.0330 hn         1 E97       0.355000
     52 H18          1.0840    -0.4220    -4.5290 hn         1 E97       0.354000
     53 H20         -1.8150     0.9620     6.5260 ha         1 E97       0.122000
     54 H21         -1.9250     1.3930     8.9570 ha         1 E97       0.125500
     55 H23          1.7610    -1.4180     7.1420 ha         1 E97       0.122000
     56 H24          1.6390    -0.9820     9.5440 ha         1 E97       0.125500
     57 H26         -2.9140     0.0610    -7.1460 ha         1 E97       0.122000
     58 H27         -2.6060     0.3260    -9.5820 ha         1 E97       0.125500
     59 H29          1.6790     0.0720    -9.0760 ha         1 E97       0.125500
     60 H30          1.3930    -0.1920    -6.6630 ha         1 E97       0.122000
     61 H321         1.5370     1.2190   -11.1870 h1         1 E97       0.034700
     62 H322         1.4550    -0.5530   -11.3900 h1         1 E97       0.034700
     63 H331        -0.0030    -0.2450   -13.3940 hc         1 E97       0.065200
     64 H332         0.0930     1.5110   -13.2060 hc         1 E97       0.065200
     65 H341         2.6020     1.3560   -13.4370 h1         1 E97       0.028700
     66 H342         2.4450    -0.3660   -13.7890 h1         1 E97       0.028700
     67 H371         1.6680     0.3810    11.5270 h1         1 E97       0.034700
     68 H372         0.6610    -1.0780    11.7410 h1         1 E97       0.034700
     69 H381        -0.8090     0.1760    13.3270 hc         1 E97       0.064700
     70 H382         0.1790     1.6250    13.0990 hc         1 E97       0.064700
     71 H391         2.1460     0.4760    14.0830 h1         1 E97       0.028200
     72 H392         1.2400    -1.0370    14.1650 h1         1 E97       0.028200
     73 H411         1.0820    -0.1080    17.6640 h1         1 E97       0.031533
     74 H412         1.4870    -1.3870    16.5020 h1         1 E97       0.031533
     75 H413         2.5330     0.0460    16.6440 h1         1 E97       0.031533
     76 H421        -0.1490     2.3160    15.2200 h1         1 E97       0.031533
     77 H422         0.2420     2.0250    16.9200 h1         1 E97       0.031533
     78 H423         1.5500     2.3380    15.7550 h1         1 E97       0.031533
     79 H431         2.8690     1.5040   -17.0480 h1         1 E97       0.031700
     80 H432         3.6010     1.9760   -15.5020 h1         1 E97       0.031700
     81 H433         3.6570     0.2760   -16.0280 h1         1 E97       0.031700
     82 H441         0.8190     0.2380   -17.1160 h1         1 E97       0.031700
     83 H442         1.3680    -1.0530   -16.0230 h1         1 E97       0.031700
     84 H443        -0.0950    -0.1100   -15.6420 h1         1 E97       0.031700
@<TRIPOS>BOND
     1     1     2 ar  
     2     1     3 ar  
     3     1    45 1   
     4     2     6 ar  
     5     2    16 1   
     6     3     4 ar  
     7     3    46 1   
     8     4     5 ar  
     9     4     7 1   
    10     5     6 ar  
    11     5    47 1   
    12     6    18 1   
    13     7     8 ar  
    14     7    11 ar  
    15     8     9 ar  
    16     8    48 1   
    17     9    10 ar  
    18     9    49 1   
    19    10    12 ar  
    20    10    13 1   
    21    11    12 ar  
    22    11    50 1   
    23    12    15 1   
    24    13    14 1   
    25    13    51 1   
    26    14    15 2   
    27    14    19 1   
    28    16    17 2   
    29    17    18 1   
    30    17    25 1   
    31    18    52 1   
    32    19    20 ar  
    33    19    23 ar  
    34    20    21 ar  
    35    20    53 1   
    36    21    22 ar  
    37    21    54 1   
    38    22    24 ar  
    39    22    36 1   
    40    23    24 ar  
    41    23    55 1   
    42    24    56 1   
    43    25    26 ar  
    44    25    30 ar  
    45    26    27 ar  
    46    26    57 1   
    47    27    28 ar  
    48    27    58 1   
    49    28    29 ar  
    50    28    31 1   
    51    29    30 ar  
    52    29    59 1   
    53    30    60 1   
    54    31    32 1   
    55    32    33 1   
    56    32    61 1   
    57    32    62 1   
    58    33    34 1   
    59    33    63 1   
    60    33    64 1   
    61    34    35 1   
    62    34    65 1   
    63    34    66 1   
    64    35    43 1   
    65    35    44 1   
    66    36    37 1   
    67    37    38 1   
    68    37    67 1   
    69    37    68 1   
    70    38    39 1   
    71    38    69 1   
    72    38    70 1   
    73    39    40 1   
    74    39    71 1   
    75    39    72 1   
    76    40    41 1   
    77    40    42 1   
    78    41    73 1   
    79    41    74 1   
    80    41    75 1   
    81    42    76 1   
    82    42    77 1   
    83    42    78 1   
    84    43    79 1   
    85    43    80 1   
    86    43    81 1   
    87    44    82 1   
    88    44    83 1   
    89    44    84 1   
@<TRIPOS>SUBSTRUCTURE
     1 E97         1 TEMP              0 ****  ****    0 ROOT
