@<TRIPOS>MOLECULE
E98
   31    33     1     0     0
SMALL
No Charge or Current Charge


@<TRIPOS>ATOM
      1 OAB         -0.7830    -1.4190     0.2110 o          1 E98      -0.563100
      2 CAS         -1.5130    -0.4430     0.1090 c          1 E98       0.615900
      3 CAU         -2.9730    -0.6100    -0.0270 ca         1 E98      -0.218600
      4 CAJ         -3.5540    -1.8900    -0.1740 ca         1 E98      -0.023000
      5 CAE         -4.9460    -2.0220    -0.2990 ca         1 E98      -0.137000
      6 CAD         -5.7630    -0.8820    -0.2730 ca         1 E98      -0.053000
      7 CAI         -5.1800     0.3880    -0.1240 ca         1 E98      -0.130000
      8 CAT         -3.7860     0.5300    -0.0100 ca         1 E98       0.132100
      9 OAN         -3.3020     1.8130     0.1710 os         1 E98      -0.192200
     10 CAK         -1.9360     2.0140     0.0270 cc         1 E98       0.125100
     11 CAR         -1.0410     0.9480     0.0820 cd         1 E98      -0.391400
     12 CAO          0.4050     1.3150     0.0840 c          1 E98       0.643300
     13 OAA          0.7520     2.4900     0.0560 o          1 E98      -0.611100
     14 NAM          1.3110     0.2640     0.1180 ns         1 E98      -0.141000
     15 CAQ          2.7320     0.2110     0.1230 ca         1 E98       0.016000
     16 CAL          3.3300    -1.0610     0.1950 ca         1 E98      -0.212000
     17 CAP          4.7260    -1.1940     0.2040 ca         1 E98       0.197000
     18 FAC          5.2820    -2.4230     0.2730 f          1 E98      -0.181000
     19 CAG          5.5470    -0.0610     0.1410 ca         1 E98      -0.182000
     20 CAF          4.9660     1.2150     0.0680 ca         1 E98      -0.062000
     21 CAH          3.5660     1.3520     0.0590 ca         1 E98      -0.155000
     22 H1          -2.9310    -2.7830    -0.1920 ha         1 E98       0.143000
     23 H2          -5.3910    -3.0080    -0.4130 ha         1 E98       0.127000
     24 H3          -6.8430    -0.9800    -0.3650 ha         1 E98       0.125000
     25 H4          -5.8140     1.2710    -0.0960 ha         1 E98       0.139000
     26 H5          -1.6800     3.0700    -0.0190 h4         1 E98       0.261000
     27 H6           0.8720    -0.6470     0.1460 hn         1 E98       0.194000
     28 H7           2.7130    -1.9550     0.2440 ha         1 E98       0.135000
     29 H8           6.6280    -0.1720     0.1480 ha         1 E98       0.132000
     30 H9           5.5990     2.0990     0.0180 ha         1 E98       0.116000
     31 H10          3.1520     2.3530    -0.0010 ha         1 E98       0.149000
@<TRIPOS>BOND
     1     1     2 2   
     2     2     3 1   
     3     2    11 1   
     4     3     4 ar  
     5     3     8 ar  
     6     4     5 ar  
     7     4    22 1   
     8     5     6 ar  
     9     5    23 1   
    10     6     7 ar  
    11     6    24 1   
    12     7     8 ar  
    13     7    25 1   
    14     8     9 1   
    15     9    10 1   
    16    10    11 2   
    17    10    26 1   
    18    11    12 1   
    19    12    13 2   
    20    12    14 1   
    21    14    15 1   
    22    14    27 1   
    23    15    16 ar  
    24    15    21 ar  
    25    16    17 ar  
    26    16    28 1   
    27    17    18 1   
    28    17    19 ar  
    29    19    20 ar  
    30    19    29 1   
    31    20    21 ar  
    32    20    30 1   
    33    21    31 1   
@<TRIPOS>SUBSTRUCTURE
     1 E98         1 TEMP              0 ****  ****    0 ROOT
