@<TRIPOS>MOLECULE
E98
   31    33     1     0     0
SMALL
abcg2


@<TRIPOS>ATOM
      1 OAB         -0.7760    -1.5120    -0.0200 o          1 E98      -0.563100
      2 CAS         -1.4950    -0.5170    -0.0290 c          1 E98       0.615900
      3 CAU         -2.9550    -0.6330    -0.0820 ca         1 E98      -0.218600
      4 CAJ         -3.5880    -1.8810    -0.1300 ca         1 E98      -0.023000
      5 CAE         -4.9620    -1.9620    -0.1790 ca         1 E98      -0.137000
      6 CAD         -5.7320    -0.7960    -0.1810 ca         1 E98      -0.053000
      7 CAI         -5.1340     0.4460    -0.1340 ca         1 E98      -0.130000
      8 CAT         -3.7470     0.5100    -0.0860 ca         1 E98       0.132100
      9 OAN         -3.1880     1.7450    -0.0410 os         1 E98      -0.192200
     10 CAK         -1.8790     1.8750     0.0020 cc         1 E98       0.125100
     11 CAR         -0.9940     0.8500     0.0100 cd         1 E98      -0.391400
     12 CAO          0.4490     1.2370     0.0570 c          1 E98       0.643300
     13 OAA          0.7790     2.4120     0.0750 o          1 E98      -0.611100
     14 NAM          1.3110     0.1970     0.0750 ns         1 E98      -0.141000
     15 CAQ          2.7040     0.2140     0.1150 ca         1 E98       0.016000
     16 CAL          3.3260    -1.0390     0.1400 ca         1 E98      -0.212000
     17 CAP          4.7000    -1.1100     0.1780 ca         1 E98       0.197000
     18 FAC          5.2730    -2.3240     0.2010 f          1 E98      -0.181000
     19 CAG          5.5060     0.0130     0.1920 ca         1 E98      -0.182000
     20 CAF          4.8750     1.2470     0.1670 ca         1 E98      -0.062000
     21 CAH          3.4920     1.3670     0.1290 ca         1 E98      -0.155000
     22 H1          -2.9840    -2.7790    -0.1280 ha         1 E98       0.143000
     23 H2          -5.4460    -2.9280    -0.2160 ha         1 E98       0.127000
     24 H3          -6.8110    -0.8640    -0.2180 ha         1 E98       0.125000
     25 H4          -5.7220     1.3540    -0.1350 ha         1 E98       0.139000
     26 H5          -1.5740     2.9130     0.0310 h4         1 E98       0.261000
     27 H6           0.8710    -0.7220     0.0550 hn         1 E98       0.194000
     28 H7           2.7390    -1.9490     0.1300 ha         1 E98       0.135000
     29 H8           6.5830    -0.0740     0.2200 ha         1 E98       0.132000
     30 H9           5.4770     2.1460     0.1760 ha         1 E98       0.116000
     31 H10          3.0470     2.3470     0.1100 ha         1 E98       0.149000
@<TRIPOS>BOND
     1     1     2 2   
     2     2     3 1   
     3     2    11 1   
     4     3     4 ar  
     5     3     8 ar  
     6     4     5 ar  
     7     4    22 1   
     8     5     6 ar  
     9     5    23 1   
    10     6     7 ar  
    11     6    24 1   
    12     7     8 ar  
    13     7    25 1   
    14     8     9 1   
    15     9    10 1   
    16    10    11 2   
    17    10    26 1   
    18    11    12 1   
    19    12    13 2   
    20    12    14 1   
    21    14    15 1   
    22    14    27 1   
    23    15    16 ar  
    24    15    21 ar  
    25    16    17 ar  
    26    16    28 1   
    27    17    18 1   
    28    17    19 ar  
    29    19    20 ar  
    30    19    29 1   
    31    20    21 ar  
    32    20    30 1   
    33    21    31 1   
@<TRIPOS>SUBSTRUCTURE
     1 E98         1 TEMP              0 ****  ****    0 ROOT
