@<TRIPOS>MOLECULE
E9B
   33    35     1     0     0
SMALL
abcg2


@<TRIPOS>ATOM
      1 CAA        -11.6450    17.2220   -15.4750 cc         1 E9B      -0.051000
      2 CAB        -11.3100    15.9290   -15.9180 cc         1 E9B      -0.086000
      3 CAC        -12.0080    14.9560   -15.2480 cd         1 E9B      -0.320600
      4 CAD        -11.9770    13.5030   -15.3920 c          1 E9B       0.627300
      5 CAE        -11.1630    11.2220   -16.4780 cc         1 E9B       0.464300
      6 CAF        -12.1770     9.3990   -16.7480 cc         1 E9B       0.502800
      7 CAG        -13.2190     8.5140   -17.1980 ce         1 E9B      -0.304800
      8 CAH        -13.2180     7.2100   -16.8860 cf         1 E9B      -0.067200
      9 CAI        -14.2150     6.2240   -17.2790 ca         1 E9B      -0.082800
     10 CAJ        -15.3110     6.5260   -18.0960 ca         1 E9B      -0.082000
     11 CAK        -16.2290     5.5470   -18.4310 ca         1 E9B      -0.115000
     12 CAL        -16.0730     4.2470   -17.9590 ca         1 E9B      -0.090000
     13 CAM        -14.9900     3.9330   -17.1510 ca         1 E9B      -0.115000
     14 CAN        -14.0690     4.9130   -16.8150 ca         1 E9B      -0.082000
     15 CAU        -12.5860    17.1620   -14.4880 cd         1 E9B      -0.361200
     16 NAO        -10.4610    10.3270   -15.8820 nd         1 E9B      -0.284000
     17 NAP        -11.1100     9.1460   -16.0540 nd         1 E9B      -0.373000
     18 NAV        -13.1710    18.2730   -13.8040 no         1 E9B       0.730200
     19 OAS        -12.6620    12.7630   -14.7430 o          1 E9B      -0.476100
     20 OAT        -12.2560    10.7020   -17.0550 os         1 E9B      -0.251000
     21 OAW        -13.9880    18.0140   -12.9500 o          1 E9B      -0.386000
     22 OAX        -12.8180    19.3800   -14.1250 o          1 E9B      -0.386000
     23 SAQ        -13.0820    15.5860   -14.0680 ss         1 E9B       0.485000
     24 SAR        -10.8180    12.9120   -16.6330 ss         1 E9B      -0.202900
     25 H1         -11.2190    18.1340   -15.8660 ha         1 E9B       0.170000
     26 H3         -10.5870    15.7410   -16.6990 ha         1 E9B       0.156000
     27 H5         -14.0010     8.9670   -17.7940 ha         1 E9B       0.201000
     28 H7         -12.4040     6.8290   -16.2760 ha         1 E9B       0.197000
     29 H9         -15.4540     7.5290   -18.4770 ha         1 E9B       0.116000
     30 H10        -17.0700     5.7950   -19.0640 ha         1 E9B       0.117500
     31 H11        -16.7940     3.4840   -18.2230 ha         1 E9B       0.117000
     32 H12        -14.8610     2.9240   -16.7800 ha         1 E9B       0.117500
     33 H13        -13.2250     4.6640   -16.1830 ha         1 E9B       0.116000
@<TRIPOS>BOND
     1     1     2 1   
     2     1    15 2   
     3     1    25 1   
     4     2     3 2   
     5     2    26 1   
     6     3     4 1   
     7     3    23 1   
     8     4    19 2   
     9     4    24 1   
    10     5    16 2   
    11     5    20 1   
    12     5    24 1   
    13     6     7 1   
    14     6    17 2   
    15     6    20 1   
    16     7     8 2   
    17     7    27 1   
    18     8     9 1   
    19     8    28 1   
    20     9    10 ar  
    21     9    14 ar  
    22    10    11 ar  
    23    10    29 1   
    24    11    12 ar  
    25    11    30 1   
    26    12    13 ar  
    27    12    31 1   
    28    13    14 ar  
    29    13    32 1   
    30    14    33 1   
    31    15    18 1   
    32    15    23 1   
    33    16    17 1   
    34    18    21 1   
    35    18    22 1   
@<TRIPOS>SUBSTRUCTURE
     1 E9B         1 TEMP              0 ****  ****    0 ROOT
