@<TRIPOS>MOLECULE
E9B
   33    35     1     0     0
SMALL
No Charge or Current Charge


@<TRIPOS>ATOM
      1 CAA        -11.5210    17.2140   -15.4180 cc         1 E9B      -0.051000
      2 CAB        -11.2110    15.8610   -15.6990 cc         1 E9B      -0.086000
      3 CAC        -12.1210    14.9760   -15.1640 cd         1 E9B      -0.320600
      4 CAD        -12.0970    13.5000   -15.2720 c          1 E9B       0.627300
      5 CAE        -11.1380    11.1720   -16.1380 cc         1 E9B       0.464300
      6 CAF        -12.1310     9.3810   -16.5620 cc         1 E9B       0.502800
      7 CAG        -13.1990     8.4680   -16.9400 ce         1 E9B      -0.304800
      8 CAH        -13.1410     7.1040   -16.9690 cf         1 E9B      -0.067200
      9 CAI        -14.1870     6.1290   -17.3420 ca         1 E9B      -0.082800
     10 CAJ        -15.4770     6.5380   -17.7450 ca         1 E9B      -0.082000
     11 CAK        -16.4510     5.5850   -18.0940 ca         1 E9B      -0.115000
     12 CAL        -16.1480     4.2150   -18.0440 ca         1 E9B      -0.090000
     13 CAM        -14.8680     3.7980   -17.6440 ca         1 E9B      -0.115000
     14 CAN        -13.8940     4.7490   -17.2960 ca         1 E9B      -0.082000
     15 CAU        -12.6640    17.3750   -14.6690 cd         1 E9B      -0.361200
     16 NAO        -10.2450    10.2210   -15.9410 nd         1 E9B      -0.284000
     17 NAP        -10.9080     9.0420   -16.1800 nd         1 E9B      -0.373000
     18 NAV        -13.2620    18.6000   -14.2090 no         1 E9B       0.730200
     19 OAS        -12.9450    12.7970   -14.7430 o          1 E9B      -0.476100
     20 OAT        -12.3330    10.7200   -16.5870 os         1 E9B      -0.251000
     21 OAW        -14.3000    18.5260   -13.5430 o          1 E9B      -0.386000
     22 OAX        -12.7010    19.6610   -14.5080 o          1 E9B      -0.386000
     23 SAQ        -13.4070    15.8140   -14.2830 ss         1 E9B       0.485000
     24 SAR        -10.6650    12.8580   -16.1900 ss         1 E9B      -0.202900
     25 H1         -10.8970    18.0320   -15.7720 ha         1 E9B       0.170000
     26 H3         -10.3340    15.5940   -16.2840 ha         1 E9B       0.156000
     27 H5         -14.1170     8.9780   -17.2200 ha         1 E9B       0.201000
     28 H7         -12.1920     6.6430   -16.6780 ha         1 E9B       0.197000
     29 H9         -15.7380     7.5910   -17.7930 ha         1 E9B       0.116000
     30 H10        -17.4420     5.9100   -18.4030 ha         1 E9B       0.117500
     31 H11        -16.9020     3.4790   -18.3140 ha         1 E9B       0.117000
     32 H12        -14.6300     2.7370   -17.6050 ha         1 E9B       0.117500
     33 H13        -12.9070     4.4090   -16.9880 ha         1 E9B       0.116000
@<TRIPOS>BOND
     1     1     2 1   
     2     1    15 2   
     3     1    25 1   
     4     2     3 2   
     5     2    26 1   
     6     3     4 1   
     7     3    23 1   
     8     4    19 2   
     9     4    24 1   
    10     5    16 2   
    11     5    20 1   
    12     5    24 1   
    13     6     7 1   
    14     6    17 2   
    15     6    20 1   
    16     7     8 2   
    17     7    27 1   
    18     8     9 1   
    19     8    28 1   
    20     9    10 ar  
    21     9    14 ar  
    22    10    11 ar  
    23    10    29 1   
    24    11    12 ar  
    25    11    30 1   
    26    12    13 ar  
    27    12    31 1   
    28    13    14 ar  
    29    13    32 1   
    30    14    33 1   
    31    15    18 1   
    32    15    23 1   
    33    16    17 1   
    34    18    21 1   
    35    18    22 1   
@<TRIPOS>SUBSTRUCTURE
     1 E9B         1 TEMP              0 ****  ****    0 ROOT
