@<TRIPOS>MOLECULE
E9C
   23    23     1     0     0
SMALL
bcc


@<TRIPOS>ATOM
      1 N           -0.7880     3.5030    26.2540 n8         1 E9C      -0.905800
      2 CA          -1.8600     3.5700    27.2290 c3         1 E9C       0.020500
      3 C           -2.0360     5.0160    27.7780 c          1 E9C       0.931600
      4 O           -1.5130     5.9320    27.1140 o          1 E9C      -0.824800
      5 CB          -1.5910     2.5940    28.3920 c3         1 E9C      -0.029200
      6 CG          -1.4220     1.2000    27.9000 ce         1 E9C      -0.071400
      7 CD1         -0.2110     0.6250    27.7820 cf         1 E9C      -0.247200
      8 CD2         -2.6490     0.4480    27.5100 c          1 E9C       0.561300
      9 CAC          0.0070    -0.7380    27.3110 c          1 E9C       0.472300
     10 CAD         -1.2310    -1.5570    26.9370 c          1 E9C       0.483100
     11 CAE         -2.4730    -0.7730    26.6400 c6         1 E9C      -0.296400
     12 OAI         -3.7460     0.8240    27.8440 o          1 E9C      -0.482100
     13 OAJ          1.1020    -1.2440    27.2250 o          1 E9C      -0.489100
     14 OAK         -1.1590    -2.7530    26.8730 o          1 E9C      -0.482100
     15 H           -0.9990     2.8320    25.5290 hn         1 E9C       0.334800
     16 H2          -0.7190     4.4130    25.8150 hn         1 E9C       0.334800
     17 HA          -2.8350     3.3010    26.7930 h1         1 E9C       0.010700
     18 HB2         -0.6840     2.9050    28.9120 hc         1 E9C       0.075200
     19 HB1         -2.4210     2.6460    29.0960 hc         1 E9C       0.075200
     20 HD1          0.6740     1.1720    28.0870 ha         1 E9C       0.167000
     21 HAE         -2.3710    -0.4020    25.6090 hc         1 E9C       0.093200
     22 HH2         -3.3590    -1.4060    26.6710 hc         1 E9C       0.093200
     23 OXT         -2.7130     5.1330    28.8160 o          1 E9C      -0.824800
@<TRIPOS>BOND
     1     1     2 1   
     2     1    15 1   
     3     1    16 1   
     4     2     3 1   
     5     2     5 1   
     6     2    17 1   
     7     3     4 1   
     8     3    23 1   
     9     5     6 1   
    10     5    18 1   
    11     5    19 1   
    12     6     7 2   
    13     6     8 1   
    14     7     9 1   
    15     7    20 1   
    16     8    11 1   
    17     8    12 2   
    18     9    10 1   
    19     9    13 2   
    20    10    11 1   
    21    10    14 2   
    22    11    21 1   
    23    11    22 1   
@<TRIPOS>SUBSTRUCTURE
     1 E9C         1 TEMP              0 ****  ****    0 ROOT
