@<TRIPOS>MOLECULE
E9C
   23    23     1     0     0
SMALL
No Charge or Current Charge


@<TRIPOS>ATOM
      1 N           -0.5410     3.5980    26.3540 n8         1 E9C      -0.905800
      2 CA          -1.7560     3.6260    27.2550 c3         1 E9C       0.020500
      3 C           -2.2230     5.0560    27.7920 c          1 E9C       0.931600
      4 O           -2.9190     5.7520    27.0580 o          1 E9C      -0.824800
      5 CB          -1.5920     2.5970    28.4080 c3         1 E9C      -0.029200
      6 CG          -1.4250     1.1570    27.9300 ce         1 E9C      -0.071400
      7 CD1         -0.1900     0.5800    27.7560 cf         1 E9C      -0.247200
      8 CD2         -2.6770     0.3990    27.5560 c          1 E9C       0.561300
      9 CAC         -0.0270    -0.8260    27.2670 c          1 E9C       0.472300
     10 CAD         -1.3900    -1.5620    26.9130 c          1 E9C       0.483100
     11 CAE         -2.4730    -0.6050    26.4360 c6         1 E9C      -0.296400
     12 OAI         -3.7560     0.5350    28.1160 o          1 E9C      -0.482100
     13 OAJ          1.0730    -1.3600    27.1540 o          1 E9C      -0.489100
     14 OAK         -1.6190    -2.7410    27.1700 o          1 E9C      -0.482100
     15 H           -0.3900     2.6450    26.0110 hn         1 E9C       0.334800
     16 H2          -0.7320     4.1510    25.5110 hn         1 E9C       0.334800
     17 HA          -2.5880     3.2630    26.6350 h1         1 E9C       0.010700
     18 HB2         -0.7340     2.8910    29.0260 hc         1 E9C       0.075200
     19 HB1         -2.4650     2.6700    29.0690 hc         1 E9C       0.075200
     20 HD1          0.7170     1.1340    27.9960 ha         1 E9C       0.167000
     21 HAE         -2.0000    -0.0280    25.6310 hc         1 E9C       0.093200
     22 HH2         -3.4030    -1.1150    26.1550 hc         1 E9C       0.093200
     23 OXT         -1.8880     5.4220    28.9160 o          1 E9C      -0.824800
@<TRIPOS>BOND
     1     1     2 1   
     2     1    15 1   
     3     1    16 1   
     4     2     3 1   
     5     2     5 1   
     6     2    17 1   
     7     3     4 1   
     8     3    23 1   
     9     5     6 1   
    10     5    18 1   
    11     5    19 1   
    12     6     7 2   
    13     6     8 1   
    14     7     9 1   
    15     7    20 1   
    16     8    11 1   
    17     8    12 2   
    18     9    10 1   
    19     9    13 2   
    20    10    11 1   
    21    10    14 2   
    22    11    21 1   
    23    11    22 1   
@<TRIPOS>SUBSTRUCTURE
     1 E9C         1 TEMP              0 ****  ****    0 ROOT
