@<TRIPOS>MOLECULE
E9E
   19    18     1     0     0
SMALL
No Charge or Current Charge


@<TRIPOS>ATOM
      1 CAM        -18.4360     0.6790    -1.9740 c3         1 E9E       0.217600
      2 CAD        -19.2700    -0.4260    -1.3090 c3         1 E9E      -0.095100
      3 OAL        -19.3250     1.4470    -2.7920 os         1 E9E      -0.613400
      4 PAO        -18.9540     2.9450    -3.2770 p5         1 E9E       1.354800
      5 CAE        -17.1440     2.9200    -3.5050 c3         1 E9E      -0.487100
      6 OAF        -19.7100     3.4680    -4.4490 o          1 E9E      -0.552000
      7 OAK        -19.1210     3.7780    -1.9040 os         1 E9E      -0.622400
      8 CAI        -20.4390     4.1400    -1.4700 c3         1 E9E       0.197900
      9 H1         -17.6410     0.2230    -2.5780 h1         1 E9E       0.031200
     10 H2         -17.9740     1.2980    -1.1930 h1         1 E9E       0.031200
     11 H3         -18.6340    -1.0490    -0.6700 hc         1 E9E       0.049367
     12 H4         -20.0620     0.0090    -0.6880 hc         1 E9E       0.049367
     13 H5         -19.7320    -1.0690    -2.0680 hc         1 E9E       0.049367
     14 H6         -16.6440     2.8340    -2.5350 hc         1 E9E       0.083700
     15 H7         -16.8720     2.0780    -4.1490 hc         1 E9E       0.083700
     16 H8         -16.8480     3.8590    -3.9840 hc         1 E9E       0.083700
     17 H9         -20.3940     4.6620    -0.5060 h1         1 E9E       0.046367
     18 H10        -20.9230     4.8090    -2.1940 h1         1 E9E       0.046367
     19 H11        -21.0720     3.2510    -1.3430 h1         1 E9E       0.046367
@<TRIPOS>BOND
     1     1     2 1   
     2     1     3 1   
     3     1     9 1   
     4     1    10 1   
     5     2    11 1   
     6     2    12 1   
     7     2    13 1   
     8     3     4 1   
     9     4     5 1   
    10     4     6 2   
    11     4     7 1   
    12     5    14 1   
    13     5    15 1   
    14     5    16 1   
    15     7     8 1   
    16     8    17 1   
    17     8    18 1   
    18     8    19 1   
@<TRIPOS>SUBSTRUCTURE
     1 E9E         1 TEMP              0 ****  ****    0 ROOT
