@<TRIPOS>MOLECULE
E9E
   19    18     1     0     0
SMALL
abcg2


@<TRIPOS>ATOM
      1 CAM        -18.5710     0.7660    -1.7250 c3         1 E9E       0.217600
      2 CAD        -19.3490    -0.4770    -1.3630 c3         1 E9E      -0.095100
      3 OAL        -19.2460     1.4150    -2.8370 os         1 E9E      -0.613400
      4 PAO        -18.9010     2.8980    -3.3090 p5         1 E9E       1.354800
      5 CAE        -17.1560     2.9740    -3.6870 c3         1 E9E      -0.487100
      6 OAF        -19.8190     3.2790    -4.4040 o          1 E9E      -0.552000
      7 OAK        -18.9920     3.8160    -2.0070 os         1 E9E      -0.622400
      8 CAI        -20.2830     4.0930    -1.4190 c3         1 E9E       0.197900
      9 H1         -17.5550     0.5210    -2.0360 h1         1 E9E       0.031200
     10 H2         -18.5240     1.4630    -0.8860 h1         1 E9E       0.031200
     11 H3         -18.8530    -0.9880    -0.5360 hc         1 E9E       0.049367
     12 H4         -20.3640    -0.2220    -1.0540 hc         1 E9E       0.049367
     13 H5         -19.4000    -1.1620    -2.2110 hc         1 E9E       0.049367
     14 H6         -16.5550     2.7030    -2.8190 hc         1 E9E       0.083700
     15 H7         -16.9470     2.2820    -4.5040 hc         1 E9E       0.083700
     16 H8         -16.9040     3.9870    -3.9990 hc         1 E9E       0.083700
     17 H9         -20.1010     4.7630    -0.5830 h1         1 E9E       0.046367
     18 H10        -20.9330     4.5740    -2.1490 h1         1 E9E       0.046367
     19 H11        -20.7410     3.1710    -1.0620 h1         1 E9E       0.046367
@<TRIPOS>BOND
     1     1     2 1   
     2     1     3 1   
     3     1     9 1   
     4     1    10 1   
     5     2    11 1   
     6     2    12 1   
     7     2    13 1   
     8     3     4 1   
     9     4     5 1   
    10     4     6 2   
    11     4     7 1   
    12     5    14 1   
    13     5    15 1   
    14     5    16 1   
    15     7     8 1   
    16     8    17 1   
    17     8    18 1   
    18     8    19 1   
@<TRIPOS>SUBSTRUCTURE
     1 E9E         1 TEMP              0 ****  ****    0 ROOT
