@<TRIPOS>MOLECULE
E9F
   53    57     1     0     0
SMALL
bcc


@<TRIPOS>ATOM
      1 C10       -127.0540  -172.2110   112.4580 c6         1 E9F       0.202500
      2 C15       -125.2980  -171.3640   113.9630 c6         1 E9F       0.188800
      3 C17       -129.7600  -171.7810   115.4460 cp         1 E9F       0.553800
      4 C20       -133.2780  -173.1070   115.8020 ca         1 E9F       0.415200
      5 C22       -133.0430  -172.4410   113.6850 ca         1 E9F       0.423800
      6 C24       -131.2700  -171.5160   112.5890 cc         1 E9F      -0.165200
      7 C28       -126.2550  -168.1970   117.2980 c3         1 E9F      -0.113300
      8 C03       -127.5820  -170.4940   118.2090 cx         1 E9F      -0.296500
      9 C04       -126.4810  -171.2080   118.9200 cx         1 E9F      -0.071400
     10 C05       -127.8670  -171.2480   119.4710 cx         1 E9F      -0.071400
     11 C06       -128.0770  -170.9920   116.8960 ca         1 E9F       0.536600
     12 C08       -127.6150  -171.4960   114.7310 ca         1 E9F       0.922900
     13 C11       -126.7960  -173.7140   112.5210 c3         1 E9F      -0.108100
     14 C12       -126.2890  -171.5280   111.3330 c6         1 E9F       0.120400
     15 C14       -124.6340  -170.7550   112.7430 c6         1 E9F       0.117400
     16 C18       -131.1450  -172.1810   115.1310 cp         1 E9F      -0.070500
     17 C19       -131.9690  -172.7310   116.1060 ca         1 E9F      -0.258300
     18 C23       -131.6950  -172.0300   113.8510 ca         1 E9F      -0.159100
     19 C25       -132.3340  -171.6360   111.7430 cd         1 E9F      -0.109100
     20 C27       -129.4070  -171.3310   116.7160 ca         1 E9F      -0.380600
     21 N01       -127.1510  -168.2180   119.7380 n2         1 E9F      -0.762900
     22 N07       -127.1840  -171.0720   115.9240 nb         1 E9F      -0.791000
     23 N09       -126.7180  -171.5520   113.7180 nh         1 E9F      -0.769300
     24 N16       -128.8730  -171.8610   114.4660 nb         1 E9F      -0.764000
     25 N21       -133.8310  -172.9680   114.6060 nb         1 E9F      -0.673000
     26 N26       -133.3960  -172.1920   112.3960 na         1 E9F      -0.276100
     27 O13       -124.9030  -171.4940   111.5750 os         1 E9F      -0.394600
     28 O29       -128.8780  -168.2640   117.7660 o          1 E9F      -0.580800
     29 S02       -127.5970  -168.6930   118.3500 s6         1 E9F       0.715700
     30 H1        -128.1130  -172.0470   112.2640 h1         1 E9F       0.089700
     31 H2        -124.8210  -172.3180   114.2150 h1         1 E9F       0.061700
     32 H3        -125.1570  -170.6990   114.8110 h1         1 E9F       0.061700
     33 H4        -133.9010  -173.5430   116.5740 h4         1 E9F       0.020100
     34 H5        -130.3060  -171.1120   112.3340 ha         1 E9F       0.167000
     35 H6        -125.3290  -168.6360   117.6570 h1         1 E9F       0.108367
     36 H7        -126.4600  -168.5250   116.2830 h1         1 E9F       0.108367
     37 H8        -126.2010  -167.1110   117.3420 h1         1 E9F       0.108367
     38 H9        -126.0870  -172.0890   118.4320 hc         1 E9F       0.086200
     39 H10       -125.7450  -170.6100   119.4440 hc         1 E9F       0.086200
     40 H11       -128.0730  -170.6920   120.3770 hc         1 E9F       0.086200
     41 H12       -128.4440  -172.1580   119.3680 hc         1 E9F       0.086200
     42 H13       -127.3750  -174.1700   113.3240 hc         1 E9F       0.045033
     43 H14       -127.0940  -174.1870   111.5850 hc         1 E9F       0.045033
     44 H15       -125.7430  -173.9440   112.6890 hc         1 E9F       0.045033
     45 H16       -126.6770  -170.5070   111.1990 h1         1 E9F       0.054200
     46 H17       -126.4490  -172.0710   110.4000 h1         1 E9F       0.054200
     47 H18       -123.5520  -170.7420   112.8870 h1         1 E9F       0.052700
     48 H19       -124.9730  -169.7160   112.6240 h1         1 E9F       0.052700
     49 H20       -131.6050  -172.8980   117.1110 ha         1 E9F       0.140000
     50 H21       -132.4150  -171.3630   110.7020 h4         1 E9F       0.164000
     51 H22       -130.1220  -171.2410   117.5200 ha         1 E9F       0.162000
     52 H23       -127.8670  -168.3900   120.4390 hn         1 E9F       0.422400
     53 H25       -134.2990  -172.3830   111.9930 hn         1 E9F       0.311700
@<TRIPOS>BOND
     1     1    13 1   
     2     1    14 1   
     3     1    23 1   
     4     1    30 1   
     5     2    15 1   
     6     2    23 1   
     7     2    31 1   
     8     2    32 1   
     9     3    16 1   
    10     3    20 ar  
    11     3    24 ar  
    12     4    17 ar  
    13     4    25 ar  
    14     4    33 1   
    15     5    18 ar  
    16     5    25 ar  
    17     5    26 1   
    18     6    18 1   
    19     6    19 2   
    20     6    34 1   
    21     7    29 1   
    22     7    35 1   
    23     7    36 1   
    24     7    37 1   
    25     8     9 1   
    26     8    10 1   
    27     8    11 1   
    28     8    29 1   
    29     9    10 1   
    30     9    38 1   
    31     9    39 1   
    32    10    40 1   
    33    10    41 1   
    34    11    20 ar  
    35    11    22 ar  
    36    12    22 ar  
    37    12    23 1   
    38    12    24 ar  
    39    13    42 1   
    40    13    43 1   
    41    13    44 1   
    42    14    27 1   
    43    14    45 1   
    44    14    46 1   
    45    15    27 1   
    46    15    47 1   
    47    15    48 1   
    48    16    17 ar  
    49    16    18 ar  
    50    17    49 1   
    51    19    26 1   
    52    19    50 1   
    53    20    51 1   
    54    21    29 2   
    55    21    52 1   
    56    26    53 1   
    57    28    29 2   
@<TRIPOS>SUBSTRUCTURE
     1 E9F         1 TEMP              0 ****  ****    0 ROOT
