@<TRIPOS>MOLECULE
E9F
   53    57     1     0     0
SMALL
No Charge or Current Charge


@<TRIPOS>ATOM
      1 C10        126.9670  -172.3070   112.3980 c6         1 E9F       0.202500
      2 C15       -125.1990  -171.2370   113.8720 c6         1 E9F       0.188800
      3 C17        129.7810  -171.7140   115.4510 cp         1 E9F       0.225500
      4 C20       -133.3530  -173.0710   115.8260 ca         1 E9F       0.349900
      5 C22        133.1340  -172.3180   113.6620 ca         1 E9F       0.358500
      6 C24       -131.3520  -171.3400   112.6590 cc         1 E9F      -0.215200
      7 C28        126.7010  -168.0900   117.3070 c3         1 E9F      -0.224100
      8 C03       -127.5010  -170.5760   118.2830 cx         1 E9F      -0.407300
      9 C04        126.2620  -171.2200   118.8820 cx         1 E9F      -0.071400
     10 C05       -127.6230  -171.5200   119.4660 cx         1 E9F      -0.071400
     11 C06        128.0180  -170.9890   116.9380 ca         1 E9F       0.208300
     12 C08       -127.5980  -171.4560   114.7260 ca         1 E9F       0.396900
     13 C11        126.7410  -173.8220   112.6600 c3         1 E9F      -0.108100
     14 C12       -126.1350  -171.8040   111.1750 c6         1 E9F       0.143600
     15 C14        124.4600  -170.8070   112.5710 c6         1 E9F       0.140600
     16 C18       -131.1990  -172.1050   115.1490 cp         1 E9F      -0.070500
     17 C19        132.0290  -172.7010   116.1350 ca         1 E9F      -0.175000
     18 C23       -131.8240  -171.9270   113.8860 ca         1 E9F      -0.093800
     19 C25        132.3800  -171.4100   111.7360 cd         1 E9F      -0.159100
     20 C27       -129.3660  -171.3190   116.7430 ca         1 E9F      -0.232000
     21 N01        127.2950  -168.3460   119.9690 n2         1 E9F      -0.762900
     22 N07       -127.1310  -171.0680   115.9300 nb         1 E9F      -0.265000
     23 N09        126.6650  -171.5260   113.6530 nh         1 E9F      -0.769300
     24 N16       -128.8800  -171.7740   114.4540 nb         1 E9F      -0.238000
     25 N21        133.9080  -172.8870   114.6050 nb         1 E9F      -0.673000
     26 N26       -133.4900  -172.0240   112.3590 na         1 E9F      -0.326400
     27 O13        124.7270  -171.7290   111.4920 os         1 E9F      -0.441000
     28 O29       -129.1730  -168.4560   118.1980 o          1 E9F      -0.510000
     29 S02        127.7880  -168.7590   118.5650 s6         1 E9F       0.866500
     30 H1        -128.0220  -172.1810   112.1140 h1         1 E9F       0.089700
     31 H2         124.7010  -172.1270   114.2840 h1         1 E9F       0.061700
     32 H3        -125.0630  -170.4260   114.6020 h1         1 E9F       0.061700
     33 H4         133.9870  -173.5340   116.5810 h4         1 E9F       0.020100
     34 H5        -130.3760  -170.8980   112.4670 ha         1 E9F       0.217000
     35 H6         125.6990  -168.4960   117.4800 h1         1 E9F       0.108367
     36 H7        -127.0860  -168.3880   116.3270 h1         1 E9F       0.108367
     37 H8         126.7060  -167.0010   117.4090 h1         1 E9F       0.108367
     38 H9        -125.7710  -172.0140   118.3220 hc         1 E9F       0.086200
     39 H10        125.5860  -170.6030   119.4690 hc         1 E9F       0.086200
     40 H11       -127.8550  -171.1040   120.4440 hc         1 E9F       0.086200
     41 H12        128.0370  -172.5110   119.2910 hc         1 E9F       0.086200
     42 H13       -127.3690  -174.1800   113.4850 hc         1 E9F       0.045033
     43 H14        126.9950  -174.4150   111.7730 hc         1 E9F       0.045033
     44 H15       -125.6970  -174.0360   112.9160 hc         1 E9F       0.045033
     45 H16        126.4880  -170.8060   110.8750 h1         1 E9F       0.054200
     46 H17       -126.2770  -172.4790   110.3200 h1         1 E9F       0.054200
     47 H18        123.3780  -170.7690   112.7530 h1         1 E9F       0.052700
     48 H19       -124.7890  -169.8010   112.2730 h1         1 E9F       0.052700
     49 H20        131.6530  -172.8960   117.1340 ha         1 E9F       0.122000
     50 H21       -132.4060  -171.0680   110.7020 h4         1 E9F       0.214000
     51 H22        130.0700  -171.2550   117.5660 ha         1 E9F       0.144000
     52 H23       -128.1020  -167.9230   120.4410 hn         1 E9F       0.422400
     53 H25        134.3950  -172.2150   111.9460 hn         1 E9F       0.362000
@<TRIPOS>BOND
     1     1    13 1   
     2     1    14 1   
     3     1    23 1   
     4     1    30 1   
     5     2    15 1   
     6     2    23 1   
     7     2    31 1   
     8     2    32 1   
     9     3    16 1   
    10     3    20 ar  
    11     3    24 ar  
    12     4    17 ar  
    13     4    25 ar  
    14     4    33 1   
    15     5    18 ar  
    16     5    25 ar  
    17     5    26 1   
    18     6    18 1   
    19     6    19 2   
    20     6    34 1   
    21     7    29 1   
    22     7    35 1   
    23     7    36 1   
    24     7    37 1   
    25     8     9 1   
    26     8    10 1   
    27     8    11 1   
    28     8    29 1   
    29     9    10 1   
    30     9    38 1   
    31     9    39 1   
    32    10    40 1   
    33    10    41 1   
    34    11    20 ar  
    35    11    22 ar  
    36    12    22 ar  
    37    12    23 1   
    38    12    24 ar  
    39    13    42 1   
    40    13    43 1   
    41    13    44 1   
    42    14    27 1   
    43    14    45 1   
    44    14    46 1   
    45    15    27 1   
    46    15    47 1   
    47    15    48 1   
    48    16    17 ar  
    49    16    18 ar  
    50    17    49 1   
    51    19    26 1   
    52    19    50 1   
    53    20    51 1   
    54    21    29 2   
    55    21    52 1   
    56    26    53 1   
    57    28    29 2   
@<TRIPOS>SUBSTRUCTURE
     1 E9F         1 TEMP              0 ****  ****    0 ROOT
