@<TRIPOS>MOLECULE
E9G
   25    25     1     0     0
SMALL
bcc


@<TRIPOS>ATOM
      1 C10          3.0590     1.2190    -1.2750 ca         1 E9G      -0.141000
      2 C11          3.7390     0.0190    -1.4300 ca         1 E9G      -0.139000
      3 C12          3.3620    -1.0840    -0.6750 ca         1 E9G      -0.141000
      4 C13          2.3120    -0.9880     0.2290 ca         1 E9G      -0.104500
      5 O14         -1.5040     1.8930    -0.0200 o          1 E9G      -0.643100
      6 C02         -2.7540    -0.0460    -0.7450 c          1 E9G       0.901600
      7 C03         -1.6120     0.6740    -0.0110 c          1 E9G       0.546100
      8 C06          0.4480     0.3390     1.3400 c3         1 E9G       0.140000
      9 C07          0.6530    -0.3510     2.6810 c3         1 E9G      -0.089100
     10 C08          1.6230     0.2120     0.3920 ca         1 E9G      -0.080300
     11 C09          2.0080     1.3120    -0.3720 ca         1 E9G      -0.104500
     12 N04         -0.7780    -0.1200     0.7020 n          1 E9G      -0.345300
     13 O01         -3.6240    -0.5410    -0.0120 o          1 E9G      -0.796800
     14 O05         -0.8240    -1.4630     0.4250 oh         1 E9G      -0.399100
     15 O15         -2.7010     0.0060    -1.9820 o          1 E9G      -0.796800
     16 H1           3.3460     2.0860    -1.8570 ha         1 E9G       0.116500
     17 H2           4.5590    -0.0560    -2.1320 ha         1 E9G       0.113000
     18 H3           3.8870    -2.0240    -0.7880 ha         1 E9G       0.116500
     19 H4           2.0390    -1.8580     0.8110 ha         1 E9G       0.135500
     20 H5           0.2830     1.3990     1.5330 h1         1 E9G       0.079700
     21 H6           0.8140    -1.4240     2.5860 hc         1 E9G       0.031700
     22 H7           1.5270     0.0690     3.1790 hc         1 E9G       0.031700
     23 H8          -0.2110    -0.1920     3.3260 hc         1 E9G       0.031700
     24 H9           1.4820     2.2520    -0.2580 ha         1 E9G       0.135500
     25 H10         -1.3790    -1.8600     1.1090 ho         1 E9G       0.400000
@<TRIPOS>BOND
     1     1     2 ar  
     2     1    11 ar  
     3     1    16 1   
     4     2     3 ar  
     5     2    17 1   
     6     3     4 ar  
     7     3    18 1   
     8     4    10 ar  
     9     4    19 1   
    10     5     7 2   
    11     6     7 1   
    12     6    13 1   
    13     6    15 1   
    14     7    12 1   
    15     8     9 1   
    16     8    10 1   
    17     8    12 1   
    18     8    20 1   
    19     9    21 1   
    20     9    22 1   
    21     9    23 1   
    22    10    11 ar  
    23    11    24 1   
    24    12    14 1   
    25    14    25 1   
@<TRIPOS>SUBSTRUCTURE
     1 E9G         1 TEMP              0 ****  ****    0 ROOT
