@<TRIPOS>MOLECULE
E9G
   25    25     1     0     0
SMALL
No Charge or Current Charge


@<TRIPOS>ATOM
      1 C10          3.3420     1.4030    -0.9140 ca         1 E9G      -0.123000
      2 C11          3.7610     0.1690    -1.4380 ca         1 E9G      -0.121000
      3 C12          3.1000    -1.0120    -1.0630 ca         1 E9G      -0.123000
      4 C13          2.0200    -0.9600    -0.1650 ca         1 E9G      -0.086500
      5 O14         -1.1870     1.5160    -0.7060 o          1 E9G      -0.643100
      6 C02         -2.8010    -0.3870    -0.9510 c          1 E9G       0.691000
      7 C03         -1.5320     0.3980    -0.3020 c          1 E9G       0.479100
      8 C06          0.4210     0.3360     1.3500 c3         1 E9G       0.140000
      9 C07          0.8290    -0.2890     2.7070 c3         1 E9G      -0.089100
     10 C08          1.5930     0.2750     0.3670 ca         1 E9G      -0.080300
     11 C09          2.2620     1.4560    -0.0150 ca         1 E9G      -0.086500
     12 N04         -0.8290    -0.2310     0.7690 n          1 E9G      -0.278300
     13 O01         -3.8440    -0.4530    -0.3000 o          1 E9G      -0.691500
     14 O05         -1.2030    -1.5630     1.1830 oh         1 E9G      -0.438100
     15 O15         -2.6890    -0.8430    -2.0900 o          1 E9G      -0.691500
     16 H1           3.8520     2.3180    -1.2040 ha         1 E9G       0.098500
     17 H2           4.5970     0.1280    -2.1340 ha         1 E9G       0.095000
     18 H3           3.4230    -1.9680    -1.4690 ha         1 E9G       0.098500
     19 H4           1.5140    -1.8790     0.1190 ha         1 E9G       0.117500
     20 H5           0.2120     1.3950     1.5540 h1         1 E9G       0.079700
     21 H6           1.0900    -1.3480     2.6000 hc         1 E9G       0.031700
     22 H7           1.7010     0.2340     3.1170 hc         1 E9G       0.031700
     23 H8           0.0130    -0.2020     3.4340 hc         1 E9G       0.031700
     24 H9           1.9450     2.4180     0.3830 ha         1 E9G       0.117500
     25 H10         -1.8360    -1.4360     1.9260 ho         1 E9G       0.439000
@<TRIPOS>BOND
     1     1     2 ar  
     2     1    11 ar  
     3     1    16 1   
     4     2     3 ar  
     5     2    17 1   
     6     3     4 ar  
     7     3    18 1   
     8     4    10 ar  
     9     4    19 1   
    10     5     7 2   
    11     6     7 1   
    12     6    13 1   
    13     6    15 1   
    14     7    12 1   
    15     8     9 1   
    16     8    10 1   
    17     8    12 1   
    18     8    20 1   
    19     9    21 1   
    20     9    22 1   
    21     9    23 1   
    22    10    11 ar  
    23    11    24 1   
    24    12    14 1   
    25    14    25 1   
@<TRIPOS>SUBSTRUCTURE
     1 E9G         1 TEMP              0 ****  ****    0 ROOT
