@<TRIPOS>MOLECULE
E9I
   27    27     1     0     0
SMALL
bcc


@<TRIPOS>ATOM
      1 N1         -11.6190   -12.8420    16.2730 nt         1 E9I      -0.676000
      2 C7         -16.2840   -15.2820    18.0070 ca         1 E9I      -0.209000
      3 C8         -12.2540   -14.0140    16.4080 c          1 E9I       0.674100
      4 C9         -16.7080   -11.6300    20.4160 c3         1 E9I       0.126700
      5 O1         -16.5380   -11.7830    19.0140 os         1 E9I      -0.322900
      6 C1         -14.0670   -14.3140    18.0670 ca         1 E9I      -0.110300
      7 C5         -14.9070   -15.3920    17.8390 ca         1 E9I      -0.069000
      8 C6         -16.8480   -14.0760    18.4090 ca         1 E9I       0.128100
      9 C4         -16.0030   -12.9790    18.6420 ca         1 E9I       0.065100
     10 C3         -14.6370   -13.1080    18.4730 ca         1 E9I      -0.108000
     11 O3         -12.5800   -14.7140    15.4620 o          1 E9I      -0.601100
     12 C2         -12.5830   -14.4140    17.8380 c3         1 E9I      -0.108100
     13 O2         -18.1640   -13.8650    18.5950 os         1 E9I      -0.302900
     14 C10        -19.0500   -14.9420    18.3720 c3         1 E9I       0.120700
     15 H12        -11.3850   -12.4900    15.3580 hn         1 E9I       0.312500
     16 H13        -11.3510   -12.2850    17.0650 hn         1 E9I       0.312500
     17 H5         -16.9020   -16.1500    17.8200 ha         1 E9I       0.138000
     18 H8         -17.1530   -10.6500    20.5810 h1         1 E9I       0.033700
     19 H6         -17.3720   -12.3910    20.8340 h1         1 E9I       0.033700
     20 H7         -15.7510   -11.6730    20.9430 h1         1 E9I       0.033700
     21 H4         -14.4940   -16.3430    17.5260 ha         1 E9I       0.140000
     22 H3         -14.0080   -12.2450    18.6600 ha         1 E9I       0.136000
     23 H2         -12.2490   -15.4430    17.9800 hc         1 E9I       0.063200
     24 H1         -12.0440   -13.7940    18.5580 hc         1 E9I       0.063200
     25 H11        -20.0510   -14.5630    18.5670 h1         1 E9I       0.041700
     26 H9         -19.0060   -15.3030    17.3420 h1         1 E9I       0.041700
     27 H10        -18.8540   -15.7800    19.0470 h1         1 E9I       0.041700
@<TRIPOS>BOND
     1     1     3 1   
     2     1    15 1   
     3     1    16 1   
     4     2     7 ar  
     5     2     8 ar  
     6     2    17 1   
     7     3    11 2   
     8     3    12 1   
     9     4     5 1   
    10     4    18 1   
    11     4    19 1   
    12     4    20 1   
    13     5     9 1   
    14     6     7 ar  
    15     6    10 ar  
    16     6    12 1   
    17     7    21 1   
    18     8     9 ar  
    19     8    13 1   
    20     9    10 ar  
    21    10    22 1   
    22    12    23 1   
    23    12    24 1   
    24    13    14 1   
    25    14    25 1   
    26    14    26 1   
    27    14    27 1   
@<TRIPOS>SUBSTRUCTURE
     1 E9I         1 TEMP              0 ****  ****    0 ROOT
