@<TRIPOS>MOLECULE
E9I
   27    27     1     0     0
SMALL
No Charge or Current Charge


@<TRIPOS>ATOM
      1 N1         -11.5790   -12.8060    16.1260 nt         1 E9I      -0.609000
      2 C7         -16.1880   -15.2370    18.0420 ca         1 E9I      -0.191000
      3 C8         -12.1750   -14.0160    16.2130 c          1 E9I       0.607100
      4 C9         -17.2940   -11.4920    20.1740 c3         1 E9I       0.149900
      5 O1         -15.9840   -11.8730    19.7140 os         1 E9I      -0.346100
      6 C1         -13.9070   -14.3840    18.0140 ca         1 E9I      -0.110300
      7 C5         -14.8370   -15.3840    17.6910 ca         1 E9I      -0.051000
      8 C6         -16.6400   -14.0800    18.7240 ca         1 E9I       0.128100
      9 C4         -15.6930   -13.0600    19.0510 ca         1 E9I       0.065100
     10 C3         -14.3430   -13.2300    18.6890 ca         1 E9I      -0.090000
     11 O3         -12.4790   -14.6250    15.2010 o          1 E9I      -0.601100
     12 C2         -12.4380   -14.5440    17.6290 c3         1 E9I      -0.108100
     13 O2         -17.9760   -13.9460    19.0640 os         1 E9I      -0.326100
     14 C10        -18.9680   -14.9420    18.7590 c3         1 E9I       0.143900
     15 H12        -11.3890   -12.4150    15.2150 hn         1 E9I       0.312500
     16 H13        -11.3330   -12.3010    16.9640 hn         1 E9I       0.312500
     17 H5         -16.8710   -16.0370    17.7720 ha         1 E9I       0.120000
     18 H8         -17.2500   -10.5110    20.6640 h1         1 E9I       0.033700
     19 H6         -17.9970   -11.4160    19.3360 h1         1 E9I       0.033700
     20 H7         -17.6780   -12.2140    20.9050 h1         1 E9I       0.033700
     21 H4         -14.5140   -16.2810    17.1650 ha         1 E9I       0.122000
     22 H3         -13.6290   -12.4500    18.9400 ha         1 E9I       0.118000
     23 H2         -12.1670   -15.6060    17.6590 hc         1 E9I       0.063200
     24 H1         -11.8160   -13.9970    18.3470 hc         1 E9I       0.063200
     25 H11        -19.9520   -14.6210    19.1230 h1         1 E9I       0.041700
     26 H9         -19.0430   -15.1000    17.6750 h1         1 E9I       0.041700
     27 H10        -18.7240   -15.8980    19.2400 h1         1 E9I       0.041700
@<TRIPOS>BOND
     1     1     3 1   
     2     1    15 1   
     3     1    16 1   
     4     2     7 ar  
     5     2     8 ar  
     6     2    17 1   
     7     3    11 2   
     8     3    12 1   
     9     4     5 1   
    10     4    18 1   
    11     4    19 1   
    12     4    20 1   
    13     5     9 1   
    14     6     7 ar  
    15     6    10 ar  
    16     6    12 1   
    17     7    21 1   
    18     8     9 ar  
    19     8    13 1   
    20     9    10 ar  
    21    10    22 1   
    22    12    23 1   
    23    12    24 1   
    24    13    14 1   
    25    14    25 1   
    26    14    26 1   
    27    14    27 1   
@<TRIPOS>SUBSTRUCTURE
     1 E9I         1 TEMP              0 ****  ****    0 ROOT
