@<TRIPOS>MOLECULE
E9J
   24    24     1     0     0
SMALL
bcc


@<TRIPOS>ATOM
      1 C02          3.0250    -0.6810     0.3820 c          1 E9J       0.877600
      2 C03          2.0220     0.5000     0.2160 c          1 E9J       0.510100
      3 C05         -0.3200     1.0270    -0.3340 c3         1 E9J       0.154000
      4 C06         -0.2720     1.6330    -1.7360 c3         1 E9J      -0.101100
      5 C07         -1.6270     0.3160    -0.0700 ca         1 E9J      -0.069300
      6 C08         -2.4560     0.7280     0.9670 ca         1 E9J      -0.118000
      7 C09         -3.6630     0.0840     1.2130 ca         1 E9J      -0.137000
      8 C10         -4.0510    -0.9900     0.4240 ca         1 E9J      -0.143000
      9 C11         -3.2270    -1.4120    -0.6120 ca         1 E9J      -0.137000
     10 C12         -2.0260    -0.7620    -0.8590 ca         1 E9J      -0.118000
     11 N04          0.7820     0.1100    -0.1070 ns         1 E9J      -0.581900
     12 O01          2.5690    -1.8170     0.1550 o          1 E9J      -0.802300
     13 O13          2.3480     1.6680     0.3750 o          1 E9J      -0.650100
     14 O14          4.1700    -0.3600     0.7210 o          1 E9J      -0.802300
     15 H1          -0.2270     1.8400     0.3910 h1         1 E9J       0.061700
     16 H2          -1.0850     2.3460    -1.8720 hc         1 E9J       0.032700
     17 H3           0.6690     2.1610    -1.8890 hc         1 E9J       0.032700
     18 H4          -0.3620     0.8640    -2.5050 hc         1 E9J       0.032700
     19 H5          -2.1580     1.5640     1.5880 ha         1 E9J       0.134000
     20 H6          -4.2980     0.4230     2.0210 ha         1 E9J       0.118000
     21 H7          -4.9890    -1.4940     0.6140 ha         1 E9J       0.115000
     22 H8          -3.5230    -2.2490    -1.2320 ha         1 E9J       0.118000
     23 H9          -1.4030    -1.1010    -1.6790 ha         1 E9J       0.134000
     24 H10          0.6470    -0.8820    -0.2300 hn         1 E9J       0.338500
@<TRIPOS>BOND
     1     1     2 1   
     2     1    12 1   
     3     1    14 1   
     4     2    11 1   
     5     2    13 2   
     6     3     4 1   
     7     3     5 1   
     8     3    11 1   
     9     3    15 1   
    10     4    16 1   
    11     4    17 1   
    12     4    18 1   
    13     5     6 ar  
    14     5    10 ar  
    15     6     7 ar  
    16     6    19 1   
    17     7     8 ar  
    18     7    20 1   
    19     8     9 ar  
    20     8    21 1   
    21     9    10 ar  
    22     9    22 1   
    23    10    23 1   
    24    11    24 1   
@<TRIPOS>SUBSTRUCTURE
     1 E9J         1 TEMP              0 ****  ****    0 ROOT
