@<TRIPOS>MOLECULE
E9J
   24    24     1     0     0
SMALL
No Charge or Current Charge


@<TRIPOS>ATOM
      1 C02          3.1420    -0.7080     0.4140 c          1 E9J       0.667000
      2 C03          2.0870     0.5300     0.2080 c          1 E9J       0.443100
      3 C05         -0.3360     1.0400    -0.3430 c3         1 E9J       0.154000
      4 C06         -0.2680     1.6440    -1.7620 c3         1 E9J      -0.101100
      5 C07         -1.6590     0.3210    -0.0820 ca         1 E9J      -0.069300
      6 C08         -2.4780     0.7220     0.9940 ca         1 E9J      -0.100000
      7 C09         -3.6960     0.0650     1.2450 ca         1 E9J      -0.119000
      8 C10         -4.1040    -1.0000     0.4250 ca         1 E9J      -0.125000
      9 C11         -3.2930    -1.4090    -0.6460 ca         1 E9J      -0.119000
     10 C12         -2.0750    -0.7530    -0.8980 ca         1 E9J      -0.100000
     11 N04          0.7880     0.1380    -0.0940 ns         1 E9J      -0.514900
     12 O01          2.7200    -1.8570     0.2900 o          1 E9J      -0.697000
     13 O13          2.3900     1.7220     0.3110 o          1 E9J      -0.650100
     14 O14          4.3140    -0.4520     0.6860 o          1 E9J      -0.697000
     15 H1          -0.2570     1.8720     0.3700 h1         1 E9J       0.061700
     16 H2          -1.1240     2.3060    -1.9360 hc         1 E9J       0.032700
     17 H3           0.6470     2.2340    -1.8900 hc         1 E9J       0.032700
     18 H4          -0.2770     0.8610    -2.5290 hc         1 E9J       0.032700
     19 H5          -2.1730     1.5440     1.6370 ha         1 E9J       0.116000
     20 H6          -4.3220     0.3820     2.0760 ha         1 E9J       0.100000
     21 H7          -5.0460    -1.5080     0.6200 ha         1 E9J       0.097000
     22 H8          -3.6060    -2.2350    -1.2800 ha         1 E9J       0.100000
     23 H9          -1.4550    -1.0820    -1.7290 ha         1 E9J       0.116000
     24 H10          0.6260    -0.8620    -0.1440 hn         1 E9J       0.338500
@<TRIPOS>BOND
     1     1     2 1   
     2     1    12 1   
     3     1    14 1   
     4     2    11 1   
     5     2    13 2   
     6     3     4 1   
     7     3     5 1   
     8     3    11 1   
     9     3    15 1   
    10     4    16 1   
    11     4    17 1   
    12     4    18 1   
    13     5     6 ar  
    14     5    10 ar  
    15     6     7 ar  
    16     6    19 1   
    17     7     8 ar  
    18     7    20 1   
    19     8     9 ar  
    20     8    21 1   
    21     9    10 ar  
    22     9    22 1   
    23    10    23 1   
    24    11    24 1   
@<TRIPOS>SUBSTRUCTURE
     1 E9J         1 TEMP              0 ****  ****    0 ROOT
