@<TRIPOS>MOLECULE
E9K
   24    25     1     0     0
SMALL
abcg2


@<TRIPOS>ATOM
      1 C7           0.0360     1.7950    -0.0110 c6         1 E9K      -0.043400
      2 C4          -0.3350    -0.6510     0.3490 c6         1 E9K       0.186300
      3 C2           1.9270     0.0780    -0.4860 cx         1 E9K       0.028500
      4 C1           1.4870     1.4750    -0.2880 cx         1 E9K       0.069500
      5 O4          -1.2790    -1.6960     0.2940 oh         1 E9K      -0.645000
      6 C5          -0.9230     0.6220    -0.2500 c6         1 E9K      -0.058700
      7 C6          -2.2900     1.0000     0.3090 c3         1 E9K       0.179600
      8 O6          -3.3110     0.2230    -0.2730 oh         1 E9K      -0.642000
      9 C3           0.9300    -1.0450    -0.4120 c6         1 E9K       0.168300
     10 O3           1.4690    -2.1880     0.2270 oh         1 E9K      -0.657000
     11 N2           2.2120     0.7680     0.7590 n5         1 E9K      -0.770400
     12 H1          -0.0580     2.1420     1.0230 hc         1 E9K       0.052700
     13 H2          -0.2730     2.6300    -0.6430 hc         1 E9K       0.052700
     14 H3          -0.0600    -0.4420     1.3960 h1         1 E9K       0.060700
     15 H4           2.7570    -0.0900    -1.1690 h1         1 E9K       0.071700
     16 H5           2.0400     2.2350    -0.8330 h1         1 E9K       0.074700
     17 H6          -0.8310    -2.4970     0.5860 ho         1 E9K       0.452000
     18 H7          -1.0280     0.4840    -1.3350 hc         1 E9K       0.067700
     19 H8          -2.2700     0.8980     1.4040 h1         1 E9K       0.014200
     20 H9          -2.4540     2.0670     0.1020 h1         1 E9K       0.014200
     21 H10         -4.1520     0.5560     0.0530 ho         1 E9K       0.438000
     22 H11          0.6270    -1.2900    -1.4410 h1         1 E9K       0.043700
     23 H12          2.0570    -2.6360    -0.3880 ho         1 E9K       0.444000
     24 H13          3.1800     1.0620     0.7910 hn         1 E9K       0.398000
@<TRIPOS>BOND
     1     1     4 1   
     2     1     6 1   
     3     1    12 1   
     4     1    13 1   
     5     2     5 1   
     6     2     6 1   
     7     2     9 1   
     8     2    14 1   
     9     3     4 1   
    10     3     9 1   
    11     3    11 1   
    12     3    15 1   
    13     4    11 1   
    14     4    16 1   
    15     5    17 1   
    16     6     7 1   
    17     6    18 1   
    18     7     8 1   
    19     7    19 1   
    20     7    20 1   
    21     8    21 1   
    22     9    10 1   
    23     9    22 1   
    24    10    23 1   
    25    11    24 1   
@<TRIPOS>SUBSTRUCTURE
     1 E9K         1 TEMP              0 ****  ****    0 ROOT
