@<TRIPOS>MOLECULE
E9K
   24    25     1     0     0
SMALL
No Charge or Current Charge


@<TRIPOS>ATOM
      1 C7           0.0890     1.7690     0.0200 c6         1 E9K      -0.043400
      2 C4          -0.3950    -0.7190     0.2910 c6         1 E9K       0.186300
      3 C2           1.9340    -0.0250    -0.6180 cx         1 E9K       0.028500
      4 C1           1.5260     1.4150    -0.4030 cx         1 E9K       0.069500
      5 O4          -1.3620    -1.7800     0.2220 oh         1 E9K      -0.645000
      6 C5          -0.9570     0.6420    -0.2350 c6         1 E9K      -0.058700
      7 C6          -2.3260     1.0490     0.3990 c3         1 E9K       0.179600
      8 O6          -3.4480     0.4310    -0.2450 oh         1 E9K      -0.642000
      9 C3           0.8770    -1.1420    -0.5140 c6         1 E9K       0.168300
     10 O3           1.4970    -2.2880     0.0900 oh         1 E9K      -0.657000
     11 N2           2.4260     0.7250     0.5570 n5         1 E9K      -0.770400
     12 H1           0.0990     2.0330     1.0870 hc         1 E9K       0.052700
     13 H2          -0.2160     2.6800    -0.5130 hc         1 E9K       0.052700
     14 H3          -0.0980    -0.5710     1.3410 h1         1 E9K       0.060700
     15 H4           2.6920    -0.2270    -1.3770 h1         1 E9K       0.071700
     16 H5           2.0100     2.1850    -1.0080 h1         1 E9K       0.074700
     17 H6          -0.8390    -2.6090     0.3000 ho         1 E9K       0.452000
     18 H7          -1.1200     0.5650    -1.3200 hc         1 E9K       0.067700
     19 H8          -2.3100     0.8040     1.4690 h1         1 E9K       0.014200
     20 H9          -2.4330     2.1390     0.3190 h1         1 E9K       0.014200
     21 H10         -4.2460     0.6840     0.2690 ho         1 E9K       0.438000
     22 H11          0.5650    -1.3830    -1.5420 h1         1 E9K       0.043700
     23 H12          2.0960    -1.9240     0.7810 ho         1 E9K       0.444000
     24 H13          3.3950     1.0450     0.3940 hn         1 E9K       0.398000
@<TRIPOS>BOND
     1     1     4 1   
     2     1     6 1   
     3     1    12 1   
     4     1    13 1   
     5     2     5 1   
     6     2     6 1   
     7     2     9 1   
     8     2    14 1   
     9     3     4 1   
    10     3     9 1   
    11     3    11 1   
    12     3    15 1   
    13     4    11 1   
    14     4    16 1   
    15     5    17 1   
    16     6     7 1   
    17     6    18 1   
    18     7     8 1   
    19     7    19 1   
    20     7    20 1   
    21     8    21 1   
    22     9    10 1   
    23     9    22 1   
    24    10    23 1   
    25    11    24 1   
@<TRIPOS>SUBSTRUCTURE
     1 E9K         1 TEMP              0 ****  ****    0 ROOT
