@<TRIPOS>MOLECULE
E9L
   34    36     1     0     0
SMALL
abcg2


@<TRIPOS>ATOM
      1 C01          6.1530    -0.4380    -0.1600 c3         1 E9L      -0.064800
      2 C02          4.6680    -0.2570    -0.1370 ca         1 E9L      -0.010300
      3 C03          4.1010     0.9370     0.3180 ca         1 E9L      -0.120000
      4 C04          2.7320     1.1030     0.3640 ca         1 E9L      -0.051500
      5 C05          1.8720     0.0730    -0.0350 ca         1 E9L      -0.201900
      6 C06          2.4360    -1.1210    -0.4900 ca         1 E9L      -0.051500
      7 C07          3.8110    -1.2760    -0.5450 ca         1 E9L      -0.120000
      8 C08          0.4210     0.2830     0.0160 cc         1 E9L       0.608200
      9 C09         -0.4630    -0.8690    -0.1030 cc         1 E9L      -0.229600
     10 C10         -1.7790    -0.6420    -0.0960 cd         1 E9L      -0.075000
     11 C11         -2.3180     0.6790    -0.0040 cd         1 E9L      -0.174600
     12 C12         -3.6340     0.8990    -0.2080 cc         1 E9L      -0.017000
     13 C13         -4.5080    -0.1970    -0.5500 cc         1 E9L      -0.024000
     14 C14         -4.0740    -1.4510    -0.5400 cd         1 E9L      -0.159000
     15 N15         -2.7190    -1.7630    -0.0940 nx         1 E9L      -0.325000
     16 C16         -2.8030    -2.3610     1.2950 c3         1 E9L       0.091900
     17 C17         -1.3540     1.7810     0.2350 c          1 E9L       0.706100
     18 O18         -1.7370     2.9140     0.4450 o          1 E9L      -0.434100
     19 N19         -0.0090     1.4930     0.1870 nd         1 E9L      -0.614100
     20 H01          6.5200    -0.7120     0.8320 hc         1 E9L       0.059700
     21 H01A         6.4500    -1.2280    -0.8480 hc         1 E9L       0.059700
     22 H01B         6.6630     0.4810    -0.4490 hc         1 E9L       0.059700
     23 H03          4.7440     1.7480     0.6390 ha         1 E9L       0.131500
     24 H04          2.3170     2.0360     0.7190 ha         1 E9L       0.122000
     25 H06          1.8200    -1.9400    -0.8350 ha         1 E9L       0.122000
     26 H07          4.2220    -2.2060    -0.9150 ha         1 E9L       0.131500
     27 H09         -0.0660    -1.8720    -0.1680 ha         1 E9L       0.218000
     28 H12         -4.0380     1.9010    -0.1650 ha         1 E9L       0.183000
     29 H13         -5.5320    -0.0010    -0.8330 ha         1 E9L       0.178000
     30 H14         -4.6570    -2.3260    -0.7830 hx         1 E9L       0.184000
     31 H15         -2.3520    -2.4960    -0.7090 hn         1 E9L       0.513000
     32 H16         -3.1690    -1.5960     1.9720 hx         1 E9L       0.102033
     33 H16A        -3.4840    -3.2050     1.2580 hx         1 E9L       0.102033
     34 H16B        -1.8080    -2.6890     1.5800 hx         1 E9L       0.102033
@<TRIPOS>BOND
     1     1     2 1   
     2     1    20 1   
     3     1    21 1   
     4     1    22 1   
     5     2     3 ar  
     6     2     7 ar  
     7     3     4 ar  
     8     3    23 1   
     9     4     5 ar  
    10     4    24 1   
    11     5     6 ar  
    12     5     8 1   
    13     6     7 ar  
    14     6    25 1   
    15     7    26 1   
    16     8     9 1   
    17     8    19 2   
    18     9    10 2   
    19     9    27 1   
    20    10    11 1   
    21    10    15 1   
    22    11    12 2   
    23    11    17 1   
    24    12    13 1   
    25    12    28 1   
    26    13    14 2   
    27    13    29 1   
    28    14    15 1   
    29    14    30 1   
    30    15    16 1   
    31    15    31 1   
    32    16    32 1   
    33    16    33 1   
    34    16    34 1   
    35    17    18 2   
    36    17    19 1   
@<TRIPOS>SUBSTRUCTURE
     1 E9L         1 TEMP              0 ****  ****    0 ROOT
