@<TRIPOS>MOLECULE
E9L
   34    36     1     0     0
SMALL
No Charge or Current Charge


@<TRIPOS>ATOM
      1 C01          6.2510    -0.4120    -0.1230 c3         1 E9L      -0.064800
      2 C02          4.7390    -0.2450    -0.0970 ca         1 E9L      -0.010300
      3 C03          4.1660     1.0120     0.1430 ca         1 E9L      -0.120000
      4 C04          2.7690     1.1670     0.1700 ca         1 E9L      -0.051500
      5 C05          1.8970     0.0640    -0.0390 ca         1 E9L      -0.201900
      6 C06          2.4990    -1.1990    -0.2830 ca         1 E9L      -0.051500
      7 C07          3.8970    -1.3460    -0.3090 ca         1 E9L      -0.120000
      8 C08          0.4190     0.2580    -0.0090 cc         1 E9L       0.608200
      9 C09         -0.5070    -0.8430    -0.1690 cc         1 E9L      -0.229600
     10 C10         -1.8670    -0.6280    -0.1470 cd         1 E9L      -0.075000
     11 C11         -2.3260     0.7080     0.0380 cd         1 E9L      -0.174600
     12 C12         -3.6870     0.9320    -0.0140 cc         1 E9L      -0.017000
     13 C13         -4.5980    -0.1070    -0.3840 cc         1 E9L      -0.024000
     14 C14         -4.1900    -1.4050    -0.6160 cd         1 E9L      -0.159000
     15 N15         -2.7920    -1.8170    -0.1840 nx         1 E9L      -0.325000
     16 C16         -2.8390    -2.5210     1.1720 c3         1 E9L       0.091900
     17 C17         -1.3790     1.8320     0.2240 c          1 E9L       0.706100
     18 O18         -1.7180     2.9930     0.3940 o          1 E9L      -0.434100
     19 N19         -0.0200     1.4940     0.1790 nd         1 E9L      -0.614100
     20 H01          6.6330    -0.6540     0.8750 hc         1 E9L       0.059700
     21 H01A         6.5530    -1.2170    -0.8020 hc         1 E9L       0.059700
     22 H01B         6.7490     0.5050    -0.4590 hc         1 E9L       0.059700
     23 H03          4.8030     1.8770     0.3120 ha         1 E9L       0.131500
     24 H04          2.3800     2.1650     0.3610 ha         1 E9L       0.122000
     25 H06          1.9130    -2.0940    -0.4640 ha         1 E9L       0.122000
     26 H07          4.3270    -2.3280    -0.4960 ha         1 E9L       0.131500
     27 H09         -0.1260    -1.8460    -0.2820 ha         1 E9L       0.218000
     28 H12         -4.0920     1.9310     0.1250 ha         1 E9L       0.183000
     29 H13         -5.6400     0.1640    -0.5340 ha         1 E9L       0.178000
     30 H14         -4.8050    -2.2310    -0.9600 hx         1 E9L       0.184000
     31 H15         -2.4260    -2.4750    -0.9140 hn         1 E9L       0.513000
     32 H16         -3.2270    -1.8240     1.9170 hx         1 E9L       0.102033
     33 H16A        -3.4950    -3.3920     1.1110 hx         1 E9L       0.102033
     34 H16B        -1.8330    -2.8350     1.4570 hx         1 E9L       0.102033
@<TRIPOS>BOND
     1     1     2 1   
     2     1    20 1   
     3     1    21 1   
     4     1    22 1   
     5     2     3 ar  
     6     2     7 ar  
     7     3     4 ar  
     8     3    23 1   
     9     4     5 ar  
    10     4    24 1   
    11     5     6 ar  
    12     5     8 1   
    13     6     7 ar  
    14     6    25 1   
    15     7    26 1   
    16     8     9 1   
    17     8    19 2   
    18     9    10 2   
    19     9    27 1   
    20    10    11 1   
    21    10    15 1   
    22    11    12 2   
    23    11    17 1   
    24    12    13 1   
    25    12    28 1   
    26    13    14 2   
    27    13    29 1   
    28    14    15 1   
    29    14    30 1   
    30    15    16 1   
    31    15    31 1   
    32    16    32 1   
    33    16    33 1   
    34    16    34 1   
    35    17    18 2   
    36    17    19 1   
@<TRIPOS>SUBSTRUCTURE
     1 E9L         1 TEMP              0 ****  ****    0 ROOT
