@<TRIPOS>MOLECULE
E9M
   29    30     1     0     0
SMALL
abcg2


@<TRIPOS>ATOM
      1 N           -4.2850    -3.1890     3.3330 n7         1 E9M      -0.829400
      2 CA          -3.3660    -2.0920     3.0550 c3         1 E9M       0.035500
      3 CG          -3.9550    -0.8050     5.1330 cc         1 E9M      -0.096400
      4 CD1         -4.5060    -1.3280     6.2690 cd         1 E9M      -0.196100
      5 CD2         -4.7100     0.3810     4.8450 ca         1 E9M      -0.096800
      6 CE2         -5.6910     0.5130     5.8550 ca         1 E9M      -0.050200
      7 C           -2.2320    -2.5880     2.1130 c          1 E9M       0.724000
      8 O           -1.0610    -2.5210     2.5360 o          1 E9M      -0.725500
      9 CB          -2.8460    -1.3730     4.3130 c3         1 E9M      -0.037200
     10 CE3         -4.6420     1.3490     3.8360 ca         1 E9M      -0.037000
     11 NE1         -5.5410    -0.5430     6.7040 na         1 E9M      -0.237700
     12 CZ3         -5.5330     2.4040     3.8570 ca         1 E9M      -0.164000
     13 CZ2         -6.5930     1.5750     5.8790 ca         1 E9M      -0.147000
     14 CH2         -6.5000     2.5150     4.8700 ca         1 E9M      -0.100000
     15 CN2         -3.7040    -4.3170     4.0320 c3         1 E9M       0.161100
     16 OXT         -2.5980    -3.0110     1.0000 o          1 E9M      -0.725500
     17 H           -5.0590    -2.8320     3.8790 hn         1 E9M       0.371000
     18 HA          -3.9480    -1.3570     2.4840 h1         1 E9M       0.041700
     19 HD1         -4.2260    -2.2160     6.8150 h4         1 E9M       0.207000
     20 HB3         -2.2460    -2.0540     4.9200 hc         1 E9M       0.056200
     21 HB2         -2.1710    -0.5710     4.0050 hc         1 E9M       0.056200
     22 HE3         -3.9000     1.2730     3.0500 ha         1 E9M       0.129000
     23 HE1         -6.0920    -0.7150     7.5280 hn         1 E9M       0.334000
     24 HZ3         -5.4890     3.1590     3.0820 ha         1 E9M       0.101000
     25 HZ2         -7.3390     1.6650     6.6590 ha         1 E9M       0.097000
     26 HH2         -7.1850     3.3530     4.8590 ha         1 E9M       0.093000
     27 HN3         -4.4920    -5.0360     4.2620 h1         1 E9M       0.011700
     28 HN1         -2.9820    -4.8310     3.3960 h1         1 E9M       0.011700
     29 HN2         -3.1970    -4.0790     4.9770 h1         1 E9M       0.011700
@<TRIPOS>BOND
     1     1     2 1   
     2     1    15 1   
     3     1    17 1   
     4     2     7 1   
     5     2     9 1   
     6     2    18 1   
     7     3     4 2   
     8     3     5 1   
     9     3     9 1   
    10     4    11 1   
    11     4    19 1   
    12     5     6 ar  
    13     5    10 ar  
    14     6    11 1   
    15     6    13 ar  
    16     7     8 1   
    17     7    16 1   
    18     9    20 1   
    19     9    21 1   
    20    10    12 ar  
    21    10    22 1   
    22    11    23 1   
    23    12    14 ar  
    24    12    24 1   
    25    13    14 ar  
    26    13    25 1   
    27    14    26 1   
    28    15    27 1   
    29    15    28 1   
    30    15    29 1   
@<TRIPOS>SUBSTRUCTURE
     1 E9M         1 TEMP              0 ****  ****    0 ROOT
