@<TRIPOS>MOLECULE
E9M
   29    30     1     0     0
SMALL
No Charge or Current Charge


@<TRIPOS>ATOM
      1 N           -4.3390    -3.1460     3.3520 n7         1 E9M      -0.829400
      2 CA          -3.3320    -2.0680     3.0290 c3         1 E9M       0.035500
      3 CG          -3.9540    -0.8020     5.1730 cc         1 E9M      -0.096400
      4 CD1         -4.4320    -1.2860     6.3880 cd         1 E9M      -0.196100
      5 CD2         -4.7480     0.3580     4.8750 ca         1 E9M      -0.096800
      6 CE2         -5.6490     0.5200     5.8900 ca         1 E9M      -0.050200
      7 C           -2.1320    -2.5120     2.0920 c          1 E9M       0.724000
      8 O           -1.0780    -2.8820     2.5990 o          1 E9M      -0.725500
      9 CB          -2.8400    -1.3770     4.3340 c3         1 E9M      -0.037200
     10 CE3         -4.6950     1.2410     3.7850 ca         1 E9M      -0.037000
     11 NE1         -5.4950    -0.4680     6.8440 na         1 E9M      -0.237700
     12 CZ3         -5.6120     2.3130     3.7580 ca         1 E9M      -0.164000
     13 CZ2         -6.5710     1.5760     5.8890 ca         1 E9M      -0.147000
     14 CH2         -6.5480     2.4800     4.8060 ca         1 E9M      -0.100000
     15 CN2         -3.8160    -4.3810     3.9670 c3         1 E9M       0.161100
     16 OXT         -2.2840    -2.4220     0.8790 o          1 E9M      -0.725500
     17 H           -5.0220    -2.7370     4.0000 hn         1 E9M       0.371000
     18 HA          -3.8570    -1.2900     2.4610 h1         1 E9M       0.041700
     19 HD1         -4.0960    -2.1520     6.9530 h4         1 E9M       0.207000
     20 HB3         -2.2550    -2.0850     4.9330 hc         1 E9M       0.056200
     21 HB2         -2.1480    -0.5710     4.0620 hc         1 E9M       0.056200
     22 HE3         -3.9700     1.1050     2.9860 ha         1 E9M       0.129000
     23 HE1         -6.0330    -0.5800     7.6980 hn         1 E9M       0.334000
     24 HZ3         -5.5990     3.0150     2.9270 ha         1 E9M       0.101000
     25 HZ2         -7.2840     1.6970     6.7010 ha         1 E9M       0.097000
     26 HH2         -7.2510     3.3090     4.7780 ha         1 E9M       0.093000
     27 HN3         -4.6340    -5.0900     4.1470 h1         1 E9M       0.011700
     28 HN1         -3.0840    -4.8680     3.3100 h1         1 E9M       0.011700
     29 HN2         -3.3340    -4.1700     4.9300 h1         1 E9M       0.011700
@<TRIPOS>BOND
     1     1     2 1   
     2     1    15 1   
     3     1    17 1   
     4     2     7 1   
     5     2     9 1   
     6     2    18 1   
     7     3     4 2   
     8     3     5 1   
     9     3     9 1   
    10     4    11 1   
    11     4    19 1   
    12     5     6 ar  
    13     5    10 ar  
    14     6    11 1   
    15     6    13 ar  
    16     7     8 1   
    17     7    16 1   
    18     9    20 1   
    19     9    21 1   
    20    10    12 ar  
    21    10    22 1   
    22    11    23 1   
    23    12    14 ar  
    24    12    24 1   
    25    13    14 ar  
    26    13    25 1   
    27    14    26 1   
    28    15    27 1   
    29    15    28 1   
    30    15    29 1   
@<TRIPOS>SUBSTRUCTURE
     1 E9M         1 TEMP              0 ****  ****    0 ROOT
