@<TRIPOS>MOLECULE
E9N
   26    26     1     0     0
SMALL
abcg2


@<TRIPOS>ATOM
      1 CAJ          2.9200     1.7550    -0.0860 c          1 E9N       0.716000
      2 OAL          3.2440     2.4630    -1.0610 o          1 E9N      -0.765500
      3 CAK          2.9270     0.2290    -0.3000 c3         1 E9N      -0.180400
      4 CAM          1.7740    -0.5090     0.3740 c3         1 E9N      -0.002700
      5 CAN          2.0210    -2.0370     0.3990 c          1 E9N       0.713000
      6 OAP          2.9670    -2.3860     1.1350 o          1 E9N      -0.748500
      7 OAO          1.3000    -2.7790    -0.2890 o          1 E9N      -0.748500
      8 SAQ          0.2450    -0.0020    -0.4620 ss         1 E9N      -0.454000
      9 CAR         -1.0090    -0.7440     0.6250 c3         1 E9N       0.084900
     10 CAW         -2.3610    -0.2270     0.2390 ca         1 E9N      -0.014300
     11 CAV         -3.1660    -0.9360    -0.6470 ca         1 E9N      -0.103000
     12 CAU         -4.4150    -0.4510    -1.0200 ca         1 E9N      -0.127500
     13 CAT         -4.8690     0.7590    -0.5130 ca         1 E9N      -0.149000
     14 CAS         -4.0690     1.4790     0.3660 ca         1 E9N      -0.127500
     15 CAX         -2.8240     0.9910     0.7350 ca         1 E9N      -0.103000
     16 H2           2.9580    -0.0090    -1.3670 hc         1 E9N       0.033700
     17 H3           1.7110    -0.1530     1.4060 h1         1 E9N       0.067700
     18 H5          -0.9610    -1.8280     0.5320 h1         1 E9N       0.068700
     19 H6          -0.7750    -0.4780     1.6580 h1         1 E9N       0.068700
     20 H7          -2.8180    -1.8830    -1.0450 ha         1 E9N       0.124000
     21 H8          -5.0300    -1.0180    -1.7070 ha         1 E9N       0.087500
     22 H9          -5.8410     1.1380    -0.7990 ha         1 E9N       0.080000
     23 H10         -4.4160     2.4230     0.7670 ha         1 E9N       0.087500
     24 H11         -2.2040     1.5560     1.4210 ha         1 E9N       0.124000
     25 O1           2.6320     2.1590     1.0580 o          1 E9N      -0.765500
     26 H12          3.8560    -0.1610     0.1290 hc         1 E9N       0.033700
@<TRIPOS>BOND
     1     1     2 1   
     2     1     3 1   
     3     1    25 1   
     4     3     4 1   
     5     3    16 1   
     6     3    26 1   
     7     4     5 1   
     8     4     8 1   
     9     4    17 1   
    10     5     6 1   
    11     5     7 1   
    12     8     9 1   
    13     9    10 1   
    14     9    18 1   
    15     9    19 1   
    16    10    11 ar  
    17    10    15 ar  
    18    11    12 ar  
    19    11    20 1   
    20    12    13 ar  
    21    12    21 1   
    22    13    14 ar  
    23    13    22 1   
    24    14    15 ar  
    25    14    23 1   
    26    15    24 1   
@<TRIPOS>SUBSTRUCTURE
     1 E9N         1 TEMP              0 ****  ****    0 ROOT
