@<TRIPOS>MOLECULE
E9N
   26    26     1     0     0
SMALL
No Charge or Current Charge


@<TRIPOS>ATOM
      1 CAJ          3.2710     1.6410     0.0280 c          1 E9N       0.716000
      2 OAL          2.8330     2.5340    -0.6810 o          1 E9N      -0.765500
      3 CAK          3.0820     0.1800    -0.4140 c3         1 E9N      -0.180400
      4 CAM          1.8380    -0.4570     0.2720 c3         1 E9N      -0.002700
      5 CAN          1.9280    -2.0180     0.3600 c          1 E9N       0.713000
      6 OAP          1.7060    -2.5460     1.4420 o          1 E9N      -0.748500
      7 OAO          2.2270    -2.6580    -0.6400 o          1 E9N      -0.748500
      8 SAQ          0.2590     0.1330    -0.5430 ss         1 E9N      -0.454000
      9 CAR         -0.9950    -0.5240     0.6520 c3         1 E9N       0.084900
     10 CAW         -2.4050    -0.1230     0.2440 ca         1 E9N      -0.014300
     11 CAV         -3.1600    -0.9510    -0.6100 ca         1 E9N      -0.103000
     12 CAU         -4.4650    -0.5820    -0.9830 ca         1 E9N      -0.127500
     13 CAT         -5.0220     0.6150    -0.5050 ca         1 E9N      -0.149000
     14 CAS         -4.2740     1.4460     0.3460 ca         1 E9N      -0.127500
     15 CAX         -2.9690     1.0780     0.7190 ca         1 E9N      -0.103000
     16 H2           2.9310     0.1050    -1.4970 hc         1 E9N       0.033700
     17 H3           1.8190    -0.1030     1.3110 h1         1 E9N       0.067700
     18 H5          -0.9200    -1.6190     0.6910 h1         1 E9N       0.068700
     19 H6          -0.7750    -0.1360     1.6560 h1         1 E9N       0.068700
     20 H7          -2.7340    -1.8780    -0.9860 ha         1 E9N       0.124000
     21 H8          -5.0430    -1.2250    -1.6430 ha         1 E9N       0.087500
     22 H9          -6.0310     0.9000    -0.7930 ha         1 E9N       0.080000
     23 H10         -4.7030     2.3740     0.7160 ha         1 E9N       0.087500
     24 H11         -2.3930     1.7260     1.3770 ha         1 E9N       0.124000
     25 O1           3.8610     1.8490     1.0780 o          1 E9N      -0.765500
     26 H12          3.9310    -0.4100    -0.0480 hc         1 E9N       0.033700
@<TRIPOS>BOND
     1     1     2 1   
     2     1     3 1   
     3     1    25 1   
     4     3     4 1   
     5     3    16 1   
     6     3    26 1   
     7     4     5 1   
     8     4     8 1   
     9     4    17 1   
    10     5     6 1   
    11     5     7 1   
    12     8     9 1   
    13     9    10 1   
    14     9    18 1   
    15     9    19 1   
    16    10    11 ar  
    17    10    15 ar  
    18    11    12 ar  
    19    11    20 1   
    20    12    13 ar  
    21    12    21 1   
    22    13    14 ar  
    23    13    22 1   
    24    14    15 ar  
    25    14    23 1   
    26    15    24 1   
@<TRIPOS>SUBSTRUCTURE
     1 E9N         1 TEMP              0 ****  ****    0 ROOT
