@<TRIPOS>MOLECULE
E9O
   48    48     1     0     0
SMALL
bcc


@<TRIPOS>ATOM
      1 C2          -1.3710   -14.2850   -54.2720 c6         1 E9O       0.168800
      2 C3          -2.3730   -13.1820   -54.5510 c6         1 E9O       0.138100
      3 O3          -2.9780   -13.4250   -55.8010 oh         1 E9O      -0.624800
      4 N           -0.7030   -13.9920   -53.0230 n7         1 E9O      -0.828200
      5 C7          -1.5860   -14.0190   -51.8600 c6         1 E9O       0.201500
      6 C5          -2.7070   -12.9930   -52.0530 c6         1 E9O      -0.227700
      7 C6          -3.8220   -13.0250   -50.9830 c          1 E9O       0.928600
      8 O62         -3.8230   -13.9000   -50.1080 o          1 E9O      -0.825300
      9 C4          -3.3930   -13.1470   -53.4260 c6         1 E9O       0.140100
     10 O4          -4.3030   -12.1040   -53.6730 oh         1 E9O      -0.681800
     11 O61         -4.7060   -12.1320   -51.1240 o          1 E9O      -0.825300
     12 C8          -0.7570   -13.7160   -50.6140 c3         1 E9O      -0.074400
     13 C9           0.2640   -14.7890   -50.2500 c3         1 E9O      -0.071400
     14 C10          0.9870   -14.4850   -48.9440 c3         1 E9O      -0.075400
     15 C1           2.0090   -15.5450   -48.5550 c3         1 E9O      -0.074400
     16 C11          2.7310   -15.2330   -47.2510 c3         1 E9O      -0.074400
     17 C12          3.7520   -16.2910   -46.8570 c3         1 E9O      -0.074400
     18 C13          4.4850   -15.9690   -45.5610 c3         1 E9O      -0.076400
     19 C14          5.4980   -17.0330   -45.1580 c3         1 E9O      -0.075400
     20 C15          6.2380   -16.6920   -43.8720 c3         1 E9O      -0.087100
     21 H1          -1.8970   -15.2550   -54.2680 h1         1 E9O       0.023200
     22 H2          -0.6270   -14.3260   -55.0710 h1         1 E9O       0.023200
     23 H3          -1.8310   -12.2230   -54.5530 h1         1 E9O       0.040700
     24 H4          -3.6690   -12.7670   -55.9260 ho         1 E9O       0.417000
     25 H5           0.0440   -14.6610   -52.8880 hn         1 E9O       0.337800
     26 H7          -2.0470   -15.0150   -51.7390 h1         1 E9O       0.033700
     27 H8          -2.2480   -11.9940   -52.0380 hc         1 E9O       0.055700
     28 H10         -3.9120   -14.1250   -53.4330 h1         1 E9O       0.025700
     29 H11         -4.6590   -11.8880   -52.7760 ho         1 E9O       0.479000
     30 H12         -0.2470   -12.7580   -50.7630 hc         1 E9O       0.058700
     31 H13         -1.4320   -13.5840   -49.7680 hc         1 E9O       0.058700
     32 H14         -0.2430   -15.7570   -50.1690 hc         1 E9O       0.027200
     33 H15          1.0130   -14.9030   -51.0410 hc         1 E9O       0.027200
     34 H16          1.4860   -13.5130   -49.0240 hc         1 E9O       0.038700
     35 H17          0.2490   -14.3800   -48.1410 hc         1 E9O       0.038700
     36 H18          1.5100   -16.5170   -48.4710 hc         1 E9O       0.032700
     37 H19          2.7450   -15.6520   -49.3600 hc         1 E9O       0.032700
     38 H20          3.2310   -14.2610   -47.3370 hc         1 E9O       0.036700
     39 H21          1.9940   -15.1220   -46.4480 hc         1 E9O       0.036700
     40 H22          3.2520   -17.2610   -46.7610 hc         1 E9O       0.034200
     41 H23          4.4840   -16.4080   -47.6640 hc         1 E9O       0.034200
     42 H24          4.9940   -15.0040   -45.6620 hc         1 E9O       0.036200
     43 H25          3.7550   -15.8410   -44.7530 hc         1 E9O       0.036200
     44 H26          4.9870   -17.9940   -45.0450 hc         1 E9O       0.034700
     45 H27          6.2200   -17.1690   -45.9690 hc         1 E9O       0.034700
     46 H28          6.9520   -17.4710   -43.6020 hc         1 E9O       0.028367
     47 H29          6.7930   -15.7570   -43.9720 hc         1 E9O       0.028367
     48 H30          5.5450   -16.5750   -43.0370 hc         1 E9O       0.028367
@<TRIPOS>BOND
     1     1     2 1   
     2     1     4 1   
     3     1    21 1   
     4     1    22 1   
     5     2     3 1   
     6     2     9 1   
     7     2    23 1   
     8     3    24 1   
     9     4     5 1   
    10     4    25 1   
    11     5     6 1   
    12     5    12 1   
    13     5    26 1   
    14     6     7 1   
    15     6     9 1   
    16     6    27 1   
    17     7     8 1   
    18     7    11 1   
    19     9    10 1   
    20     9    28 1   
    21    10    29 1   
    22    12    13 1   
    23    12    30 1   
    24    12    31 1   
    25    13    14 1   
    26    13    32 1   
    27    13    33 1   
    28    14    15 1   
    29    14    34 1   
    30    14    35 1   
    31    15    16 1   
    32    15    36 1   
    33    15    37 1   
    34    16    17 1   
    35    16    38 1   
    36    16    39 1   
    37    17    18 1   
    38    17    40 1   
    39    17    41 1   
    40    18    19 1   
    41    18    42 1   
    42    18    43 1   
    43    19    20 1   
    44    19    44 1   
    45    19    45 1   
    46    20    46 1   
    47    20    47 1   
    48    20    48 1   
@<TRIPOS>SUBSTRUCTURE
     1 E9O         1 TEMP              0 ****  ****    0 ROOT
