@<TRIPOS>MOLECULE
E9O
   48    48     1     0     0
SMALL
No Charge or Current Charge


@<TRIPOS>ATOM
      1 C2          -1.3250   -14.2910   -54.3350 c6         1 E9O       0.168800
      2 C3          -2.4300   -13.2510   -54.6740 c6         1 E9O       0.161300
      3 O3          -3.1130   -13.5720   -55.8990 oh         1 E9O      -0.687000
      4 N           -0.6630   -13.9810   -53.0430 n7         1 E9O      -0.883400
      5 C7          -1.6050   -13.9300   -51.8980 c6         1 E9O       0.201500
      6 C5          -2.7260   -12.8810   -52.1600 c6         1 E9O      -0.227700
      7 C6          -3.7120   -12.8270   -50.9850 c          1 E9O       0.718000
      8 O62         -4.3840   -13.8200   -50.7480 o          1 E9O      -0.720000
      9 C4          -3.4530   -13.1790   -53.4990 c6         1 E9O       0.163300
     10 O4          -4.4510   -12.1800   -53.7810 oh         1 E9O      -0.744000
     11 O61         -3.8080   -11.7810   -50.3620 o          1 E9O      -0.720000
     12 C8          -0.7950   -13.6480   -50.5940 c3         1 E9O      -0.074400
     13 C9           0.2590   -14.7230   -50.2290 c3         1 E9O      -0.071400
     14 C10          0.9800   -14.4340   -48.8930 c3         1 E9O      -0.075400
     15 C1           2.0300   -15.5060   -48.5290 c3         1 E9O      -0.074400
     16 C11          2.7510   -15.2170   -47.1940 c3         1 E9O      -0.074400
     17 C12          3.8020   -16.2890   -46.8300 c3         1 E9O      -0.074400
     18 C13          4.5220   -16.0000   -45.4950 c3         1 E9O      -0.076400
     19 C14          5.5730   -17.0710   -45.1310 c3         1 E9O      -0.075400
     20 C15          6.2920   -16.7830   -43.7990 c3         1 E9O      -0.087100
     21 H1          -1.7660   -15.2980   -54.2830 h1         1 E9O       0.023200
     22 H2          -0.5680   -14.2970   -55.1340 h1         1 E9O       0.023200
     23 H3          -1.9490   -12.2660   -54.7700 h1         1 E9O       0.040700
     24 H4          -3.9580   -13.0680   -55.8380 ho         1 E9O       0.456000
     25 H5           0.0400   -14.7020   -52.8510 hn         1 E9O       0.393000
     26 H7          -2.0730   -14.9210   -51.7900 h1         1 E9O       0.033700
     27 H8          -2.2520   -11.8930   -52.2330 hc         1 E9O       0.055700
     28 H10         -3.9360   -14.1640   -53.4140 h1         1 E9O       0.025700
     29 H11         -5.1370   -12.2600   -53.0780 ho         1 E9O       0.518000
     30 H12         -0.2960   -12.6750   -50.6750 hc         1 E9O       0.058700
     31 H13         -1.4840   -13.5640   -49.7460 hc         1 E9O       0.058700
     32 H14         -0.2350   -15.7010   -50.1670 hc         1 E9O       0.027200
     33 H15          1.0090   -14.7910   -51.0260 hc         1 E9O       0.027200
     34 H16          1.4710   -13.4550   -48.9540 hc         1 E9O       0.038700
     35 H17          0.2370   -14.3710   -48.0880 hc         1 E9O       0.038700
     36 H18          1.5390   -16.4850   -48.4690 hc         1 E9O       0.032700
     37 H19          2.7740   -15.5690   -49.3330 hc         1 E9O       0.032700
     38 H20          3.2420   -14.2370   -47.2540 hc         1 E9O       0.036700
     39 H21          2.0070   -15.1540   -46.3900 hc         1 E9O       0.036700
     40 H22          3.3110   -17.2680   -46.7700 hc         1 E9O       0.034200
     41 H23          4.5450   -16.3520   -47.6340 hc         1 E9O       0.034200
     42 H24          5.0130   -15.0200   -45.5550 hc         1 E9O       0.036200
     43 H25          3.7790   -15.9370   -44.6900 hc         1 E9O       0.036200
     44 H26          5.0860   -18.0520   -45.0670 hc         1 E9O       0.034700
     45 H27          6.3200   -17.1360   -45.9320 hc         1 E9O       0.034700
     46 H28          7.0270   -17.5690   -43.5840 hc         1 E9O       0.028367
     47 H29          6.8200   -15.8230   -43.8430 hc         1 E9O       0.028367
     48 H30          5.5750   -16.7480   -42.9700 hc         1 E9O       0.028367
@<TRIPOS>BOND
     1     1     2 1   
     2     1     4 1   
     3     1    21 1   
     4     1    22 1   
     5     2     3 1   
     6     2     9 1   
     7     2    23 1   
     8     3    24 1   
     9     4     5 1   
    10     4    25 1   
    11     5     6 1   
    12     5    12 1   
    13     5    26 1   
    14     6     7 1   
    15     6     9 1   
    16     6    27 1   
    17     7     8 1   
    18     7    11 1   
    19     9    10 1   
    20     9    28 1   
    21    10    29 1   
    22    12    13 1   
    23    12    30 1   
    24    12    31 1   
    25    13    14 1   
    26    13    32 1   
    27    13    33 1   
    28    14    15 1   
    29    14    34 1   
    30    14    35 1   
    31    15    16 1   
    32    15    36 1   
    33    15    37 1   
    34    16    17 1   
    35    16    38 1   
    36    16    39 1   
    37    17    18 1   
    38    17    40 1   
    39    17    41 1   
    40    18    19 1   
    41    18    42 1   
    42    18    43 1   
    43    19    20 1   
    44    19    44 1   
    45    19    45 1   
    46    20    46 1   
    47    20    47 1   
    48    20    48 1   
@<TRIPOS>SUBSTRUCTURE
     1 E9O         1 TEMP              0 ****  ****    0 ROOT
