@<TRIPOS>MOLECULE
E9P
   30    31     1     0     0
SMALL
No Charge or Current Charge


@<TRIPOS>ATOM
      1 C1          -0.2330    -0.2750     0.5620 ca         1 E9P       0.090100
      2 C2          -1.2770    -1.2060     0.3560 ca         1 E9P       0.122100
      3 C3          -2.5320    -0.7610    -0.0950 ca         1 E9P      -0.183000
      4 C4          -2.7600     0.6070    -0.3360 ca         1 E9P      -0.058300
      5 C5          -1.7220     1.5330    -0.1150 ca         1 E9P      -0.119000
      6 C6          -0.4650     1.0960     0.3350 ca         1 E9P      -0.133000
      7 O7           0.9970    -0.7090     1.0180 os         1 E9P      -0.235200
      8 C8           2.1900    -0.2030     0.5500 ca         1 E9P       0.108100
      9 C9           3.2670    -0.0680     1.4420 ca         1 E9P      -0.131500
     10 C10          4.5000     0.4330     0.9880 ca         1 E9P      -0.095500
     11 C11          4.6580     0.7920    -0.3620 ca         1 E9P      -0.123000
     12 C12          3.5860     0.6470    -1.2600 ca         1 E9P      -0.095500
     13 C13          2.3530     0.1450    -0.8070 ca         1 E9P      -0.131500
     14 C14         -4.1230     1.0850    -0.8190 c3         1 E9P      -0.030100
     15 CAA         -5.0700     1.4160     0.3490 c3         1 E9P      -0.086100
     16 O16         -1.0820    -2.5420     0.5850 oh         1 E9P      -0.513100
     17 H6           0.3250     1.8220     0.5120 ha         1 E9P       0.128000
     18 H3          -3.3370    -1.4750    -0.2570 ha         1 E9P       0.113000
     19 H16         -1.9170    -3.0170     0.3860 ho         1 E9P       0.460000
     20 H5          -1.8920     2.5930    -0.2880 ha         1 E9P       0.116000
     21 H141        -4.0110     1.9760    -1.4500 hc         1 E9P       0.045700
     22 H142        -4.5900     0.3200    -1.4520 hc         1 E9P       0.045700
     23 H9           3.1440    -0.3490     2.4850 ha         1 E9P       0.128000
     24 H13          1.5310     0.0250    -1.5080 ha         1 E9P       0.128000
     25 H10          5.3320     0.5420     1.6810 ha         1 E9P       0.114500
     26 H11          5.6120     1.1800    -0.7130 ha         1 E9P       0.115000
     27 H12          3.7110     0.9190    -2.3060 ha         1 E9P       0.114500
     28 HAA1        -6.0410     1.7560    -0.0300 hc         1 E9P       0.035700
     29 HAA2        -5.2350     0.5300     0.9750 hc         1 E9P       0.035700
     30 HAA3        -4.6470     2.2090     0.9760 hc         1 E9P       0.035700
@<TRIPOS>BOND
     1     1     2 ar  
     2     1     6 ar  
     3     1     7 1   
     4     2     3 ar  
     5     2    16 1   
     6     3     4 ar  
     7     3    18 1   
     8     4     5 ar  
     9     4    14 1   
    10     5     6 ar  
    11     5    20 1   
    12     6    17 1   
    13     7     8 1   
    14     8     9 ar  
    15     8    13 ar  
    16     9    10 ar  
    17     9    23 1   
    18    10    11 ar  
    19    10    25 1   
    20    11    12 ar  
    21    11    26 1   
    22    12    13 ar  
    23    12    27 1   
    24    13    24 1   
    25    14    15 1   
    26    14    21 1   
    27    14    22 1   
    28    15    28 1   
    29    15    29 1   
    30    15    30 1   
    31    16    19 1   
@<TRIPOS>SUBSTRUCTURE
     1 E9P         1 TEMP              0 ****  ****    0 ROOT
