@<TRIPOS>MOLECULE
E9P
   30    31     1     0     0
SMALL
bcc


@<TRIPOS>ATOM
      1 C1          -0.2270    -0.3770     0.3260 ca         1 E9P       0.090100
      2 C2          -1.2810    -1.2860     0.1850 ca         1 E9P       0.122100
      3 C3          -2.5420    -0.8130    -0.1530 ca         1 E9P      -0.201000
      4 C4          -2.7790     0.5420    -0.3690 ca         1 E9P      -0.058300
      5 C5          -1.7160     1.4270    -0.2380 ca         1 E9P      -0.137000
      6 C6          -0.4510     0.9730     0.1160 ca         1 E9P      -0.151000
      7 O7           0.9670    -0.9020     0.7330 os         1 E9P      -0.235200
      8 C8           2.1320    -0.2650     0.4040 ca         1 E9P       0.108100
      9 C9           3.0140     0.0420     1.4290 ca         1 E9P      -0.149500
     10 C10          4.2370     0.6260     1.1280 ca         1 E9P      -0.113500
     11 C11          4.5730     0.9110    -0.1880 ca         1 E9P      -0.141000
     12 C12          3.6800     0.6000    -1.2070 ca         1 E9P      -0.113500
     13 C13          2.4580     0.0100    -0.9200 ca         1 E9P      -0.149500
     14 C14         -4.1650     1.0380    -0.6810 c3         1 E9P      -0.030100
     15 CAA         -4.8600     1.6110     0.5520 c3         1 E9P      -0.086100
     16 O16         -1.0090    -2.5880     0.3990 oh         1 E9P      -0.474100
     17 H6           0.3600     1.6820     0.2230 ha         1 E9P       0.146000
     18 H3          -3.3600    -1.5200    -0.2500 ha         1 E9P       0.131000
     19 H16         -1.7980    -3.1200     0.2510 ho         1 E9P       0.421000
     20 H5          -1.8680     2.4870    -0.4020 ha         1 E9P       0.134000
     21 H141        -4.1150     1.8040    -1.4580 hc         1 E9P       0.045700
     22 H142        -4.7640     0.2220    -1.0910 hc         1 E9P       0.045700
     23 H9           2.7430    -0.1740     2.4560 ha         1 E9P       0.146000
     24 H13          1.7680    -0.2350    -1.7180 ha         1 E9P       0.146000
     25 H10          4.9240     0.8670     1.9290 ha         1 E9P       0.132500
     26 H11          5.5230     1.3740    -0.4220 ha         1 E9P       0.133000
     27 H12          3.9420     0.8070    -2.2360 ha         1 E9P       0.132500
     28 HAA1        -5.8640     1.9600     0.3070 hc         1 E9P       0.035700
     29 HAA2        -4.9470     0.8610     1.3390 hc         1 E9P       0.035700
     30 HAA3        -4.3050     2.4580     0.9570 hc         1 E9P       0.035700
@<TRIPOS>BOND
     1     1     2 ar  
     2     1     6 ar  
     3     1     7 1   
     4     2     3 ar  
     5     2    16 1   
     6     3     4 ar  
     7     3    18 1   
     8     4     5 ar  
     9     4    14 1   
    10     5     6 ar  
    11     5    20 1   
    12     6    17 1   
    13     7     8 1   
    14     8     9 ar  
    15     8    13 ar  
    16     9    10 ar  
    17     9    23 1   
    18    10    11 ar  
    19    10    25 1   
    20    11    12 ar  
    21    11    26 1   
    22    12    13 ar  
    23    12    27 1   
    24    13    24 1   
    25    14    15 1   
    26    14    21 1   
    27    14    22 1   
    28    15    28 1   
    29    15    29 1   
    30    15    30 1   
    31    16    19 1   
@<TRIPOS>SUBSTRUCTURE
     1 E9P         1 TEMP              0 ****  ****    0 ROOT
