@<TRIPOS>MOLECULE
E9Q
   24    25     1     0     0
SMALL
No Charge or Current Charge


@<TRIPOS>ATOM
      1 C4          -2.2320     0.7940     0.9280 c5         1 E9Q       0.200300
      2 C5           1.2170    -0.3140     0.1030 cc         1 E9Q      -0.271000
      3 C6           1.3370    -1.6690     0.4910 cg         1 E9Q       0.381000
      4 N1           0.1750     1.6770    -0.3200 nd         1 E9Q      -0.593800
      5 C7           2.1890     0.5360    -0.2900 cd         1 E9Q       0.310000
      6 N2          -1.1940    -0.1400     0.3990 nh         1 E9Q      -0.740300
      7 N3           1.4680    -2.7870     0.7990 n1         1 E9Q      -0.505000
      8 N4           3.5360     0.3550    -0.4390 nv         1 E9Q      -1.073000
      9 N            1.5540     1.7490    -0.5490 na         1 E9Q      -0.045200
     10 C            0.0240     0.4250     0.0710 cc         1 E9Q       0.576900
     11 C3          -3.3120     0.7230    -0.1820 c5         1 E9Q      -0.084400
     12 C2          -3.2540    -0.7800    -0.5540 c5         1 E9Q      -0.084400
     13 C1          -1.7260    -0.9980    -0.6950 c5         1 E9Q       0.200300
     14 H2          -2.6280     0.4190     1.8820 h1         1 E9Q       0.050700
     15 H1          -1.8850     1.8220     1.1010 h1         1 E9Q       0.050700
     16 H4           3.9710    -0.5120    -0.1230 hn         1 E9Q       0.477000
     17 H5           4.1540     1.1480    -0.6100 hn         1 E9Q       0.477000
     18 H            2.0080     2.6000    -0.8700 hn         1 E9Q       0.372000
     19 H7          -4.2990     1.0370     0.1750 hc         1 E9Q       0.049950
     20 H6          -3.0490     1.3600    -1.0350 hc         1 E9Q       0.049950
     21 H8          -3.6750    -1.4060     0.2410 hc         1 E9Q       0.049950
     22 H9          -3.7950    -1.0110    -1.4780 hc         1 E9Q       0.049950
     23 H10         -1.3700    -0.6680    -1.6810 h1         1 E9Q       0.050700
     24 H11         -1.4540    -2.0550    -0.5690 h1         1 E9Q       0.050700
@<TRIPOS>BOND
     1     1     6 1   
     2     1    11 1   
     3     1    14 1   
     4     1    15 1   
     5     2     3 1   
     6     2     5 2   
     7     2    10 1   
     8     3     7 3   
     9     4     9 1   
    10     4    10 2   
    11     5     8 1   
    12     5     9 1   
    13     6    10 1   
    14     6    13 1   
    15     8    16 1   
    16     8    17 1   
    17     9    18 1   
    18    11    12 1   
    19    11    19 1   
    20    11    20 1   
    21    12    13 1   
    22    12    21 1   
    23    12    22 1   
    24    13    23 1   
    25    13    24 1   
@<TRIPOS>SUBSTRUCTURE
     1 E9Q         1 TEMP              0 ****  ****    0 ROOT
