@<TRIPOS>MOLECULE
E9Q
   24    25     1     0     0
SMALL
bcc


@<TRIPOS>ATOM
      1 C4          -2.2450     1.2360     0.1120 c5         1 E9Q       0.200300
      2 C5           1.1980    -0.3340    -0.1430 cc         1 E9Q      -0.336300
      3 C6           1.2850    -1.7200    -0.2990 cg         1 E9Q       0.291800
      4 N1           0.4510     1.7740     0.1810 nd         1 E9Q      -0.593800
      5 C7           2.3070     0.5240    -0.0810 cd         1 E9Q       0.222300
      6 N2          -1.2490     0.1770     0.1100 nh         1 E9Q      -0.740300
      7 N3           1.4000    -2.8650    -0.4260 n1         1 E9Q      -0.415800
      8 N4           3.6190     0.2470    -0.2480 nv         1 E9Q      -0.824200
      9 N            1.8110     1.7410     0.1190 na         1 E9Q      -0.045600
     10 C            0.0670     0.5280     0.0370 cc         1 E9Q       0.642200
     11 C3          -3.5790     0.4870     0.1430 c5         1 E9Q      -0.084400
     12 C2          -3.2610    -0.9480    -0.3210 c5         1 E9Q      -0.084400
     13 C1          -1.7680    -0.9490    -0.6500 c5         1 E9Q       0.200300
     14 H2          -2.1080     1.8930     0.9710 h1         1 E9Q       0.050700
     15 H1          -2.1620     1.8590    -0.7890 h1         1 E9Q       0.050700
     16 H4           3.9000    -0.7070    -0.0910 hn         1 E9Q       0.421800
     17 H5           4.2810     0.9170     0.1090 hn         1 E9Q       0.421800
     18 H            2.3300     2.6000     0.2020 hn         1 E9Q       0.321700
     19 H7          -3.9930     0.4800     1.1510 hc         1 E9Q       0.049950
     20 H6          -4.3100     0.9750    -0.4990 hc         1 E9Q       0.049950
     21 H8          -3.4730    -1.6610     0.4750 hc         1 E9Q       0.049950
     22 H9          -3.8490    -1.2470    -1.1870 hc         1 E9Q       0.049950
     23 H10         -1.6000    -0.8160    -1.7270 h1         1 E9Q       0.050700
     24 H11         -1.2910    -1.8830    -0.3540 h1         1 E9Q       0.050700
@<TRIPOS>BOND
     1     1     6 1   
     2     1    11 1   
     3     1    14 1   
     4     1    15 1   
     5     2     3 1   
     6     2     5 2   
     7     2    10 1   
     8     3     7 3   
     9     4     9 1   
    10     4    10 2   
    11     5     8 1   
    12     5     9 1   
    13     6    10 1   
    14     6    13 1   
    15     8    16 1   
    16     8    17 1   
    17     9    18 1   
    18    11    12 1   
    19    11    19 1   
    20    11    20 1   
    21    12    13 1   
    22    12    21 1   
    23    12    22 1   
    24    13    23 1   
    25    13    24 1   
@<TRIPOS>SUBSTRUCTURE
     1 E9Q         1 TEMP              0 ****  ****    0 ROOT
