@<TRIPOS>MOLECULE
E9S
   22    22     1     0     0
SMALL
No Charge or Current Charge


@<TRIPOS>ATOM
      1 C10         34.8990    76.9530    63.4930 ca         1 E9S      -0.115000
      2 C13         32.2840    76.8370    62.4780 ca         1 E9S       0.137100
      3 C15         33.1030    77.9480    62.1760 ca         1 E9S      -0.010900
      4 C02         37.7250    81.4610    64.6130 c          1 E9S       0.706200
      5 C04         36.9810    80.8270    63.4100 ce         1 E9S       0.167900
      6 C06         36.0830    79.7980    63.5080 cf         1 E9S      -0.530200
      7 C09         34.4260    78.0100    62.6830 ca         1 E9S      -0.052600
      8 C11         34.0790    75.8520    63.7870 ca         1 E9S      -0.074000
      9 C12         32.7740    75.7940    63.2780 ca         1 E9S      -0.207000
     10 O01         37.5060    81.0220    65.7380 o          1 E9S      -0.681000
     11 O03         38.5120    82.3820    64.4150 o          1 E9S      -0.681000
     12 O05         37.2420    81.3310    62.1720 oh         1 E9S      -0.516100
     13 O08         35.5330    79.5740    61.2420 o          1 E9S      -0.632100
     14 O14         31.0060    76.7630    62.0040 oh         1 E9S      -0.525100
     15 Br16        32.3720    79.3880    61.1190 br         1 E9S      -0.081100
     16 H1          35.9130    76.9800    63.8860 ha         1 E9S       0.137000
     17 H3          35.8700    79.3970    64.4980 ha         1 E9S       0.216000
     18 H5          34.4590    75.0430    64.4090 ha         1 E9S       0.109000
     19 H6          32.1470    74.9370    63.5130 ha         1 E9S       0.102000
     20 H8          36.6610    80.7800    61.5860 ho         1 E9S       0.493000
     21 H9          30.6070    75.9260    62.3230 ho         1 E9S       0.456000
     22 C07         35.3460    79.1670    62.3840 c          1 E9S       0.584900
@<TRIPOS>BOND
     1     1     7 ar  
     2     1     8 ar  
     3     1    16 1   
     4     2     3 ar  
     5     2     9 ar  
     6     2    14 1   
     7     3     7 ar  
     8     3    15 1   
     9     4     5 1   
    10     4    10 1   
    11     4    11 1   
    12     5     6 2   
    13     5    12 1   
    14     6    17 1   
    15     6    22 1   
    16     7    22 1   
    17     8     9 ar  
    18     8    18 1   
    19     9    19 1   
    20    12    20 1   
    21    13    22 2   
    22    14    21 1   
@<TRIPOS>SUBSTRUCTURE
     1 E9S         1 TEMP              0 ****  ****    0 ROOT
