@<TRIPOS>MOLECULE
E9S
   22    22     1     0     0
SMALL
abcg2


@<TRIPOS>ATOM
      1 C10         34.9220    76.9290    63.5050 ca         1 E9S      -0.115000
      2 C13         32.3200    76.8670    62.5020 ca         1 E9S       0.137100
      3 C15         33.1450    77.9680    62.2570 ca         1 E9S      -0.010900
      4 C02         37.6460    81.4950    64.5540 c          1 E9S       0.706200
      5 C04         36.9250    80.7890    63.3860 ce         1 E9S       0.167900
      6 C06         36.0510    79.7530    63.5780 cf         1 E9S      -0.530200
      7 C09         34.4510    78.0050    62.7500 ca         1 E9S      -0.052600
      8 C11         34.1130    75.8250    63.7340 ca         1 E9S      -0.074000
      9 C12         32.8210    75.7900    63.2340 ca         1 E9S      -0.207000
     10 O01         37.2840    81.1440    65.6990 o          1 E9S      -0.681000
     11 O03         38.5130    82.3350    64.2350 o          1 E9S      -0.681000
     12 O05         37.2060    81.2440    62.1770 oh         1 E9S      -0.516100
     13 O08         35.5920    79.4890    61.2870 o          1 E9S      -0.632100
     14 O14         31.0520    76.8830    62.0230 oh         1 E9S      -0.525100
     15 BR16        32.3920    79.4510    61.3130 br         1 E9S      -0.081100
     16 H1          35.9310    76.9580    63.8930 ha         1 E9S       0.137000
     17 H3          35.8480    79.4300    64.5850 ha         1 E9S       0.216000
     18 H5          34.4890    74.9870    64.3060 ha         1 E9S       0.109000
     19 H6          32.1800    74.9350    63.4130 ha         1 E9S       0.102000
     20 H8          36.6620    80.6890    61.5400 ho         1 E9S       0.493000
     21 H9          30.5920    76.0700    62.2730 ho         1 E9S       0.456000
     22 C07         35.3920    79.1340    62.4700 c          1 E9S       0.584900
@<TRIPOS>BOND
     1     1     7 ar  
     2     1     8 ar  
     3     1    16 1   
     4     2     3 ar  
     5     2     9 ar  
     6     2    14 1   
     7     3     7 ar  
     8     3    15 1   
     9     4     5 1   
    10     4    10 1   
    11     4    11 1   
    12     5     6 2   
    13     5    12 1   
    14     6    17 1   
    15     6    22 1   
    16     7    22 1   
    17     8     9 ar  
    18     8    18 1   
    19     9    19 1   
    20    12    20 1   
    21    13    22 2   
    22    14    21 1   
@<TRIPOS>SUBSTRUCTURE
     1 E9S         1 TEMP              0 ****  ****    0 ROOT
