@<TRIPOS>MOLECULE
E9T
   55    60     1     0     0
SMALL
abcg2


@<TRIPOS>ATOM
      1 C4           2.7460     1.1290     1.0650 ca         1 E9T      -0.091000
      2 C5           3.8420     0.5210     0.4080 ca         1 E9T      -0.041000
      3 C6           3.6280    -0.7110    -0.2610 ca         1 E9T      -0.048000
      4 C7           4.7210    -1.3140    -0.9280 ca         1 E9T      -0.153000
      5 C8           5.9540    -0.7230    -0.9240 ca         1 E9T      -0.058000
      6 C9           6.1790     0.5040    -0.2560 ca         1 E9T      -0.124600
      7 C10          5.1290     1.1020     0.3950 ca         1 E9T      -0.096000
      8 C11          7.5610     1.1460    -0.2670 c          1 E9T       0.711600
      9 C15         -5.1380     2.0620    -1.5800 c6         1 E9T      -0.067733
     10 C1           1.5090     0.5490     1.0510 ca         1 E9T      -0.129000
     11 C2           1.2820    -0.6810     0.3800 cp         1 E9T      -0.068000
     12 C3           2.3390    -1.2870    -0.2560 ca         1 E9T      -0.080000
     13 O12          7.6820     2.2280     0.3370 o          1 E9T      -0.717000
     14 O13          8.4530     0.5300    -0.8820 o          1 E9T      -0.717000
     15 C16         -5.6380     0.6220    -1.4780 c6         1 E9T      -0.060700
     16 C17         -4.4470    -0.3210    -1.2950 c6         1 E9T      -0.066733
     17 C19         -3.2180     1.4620    -0.1000 c6         1 E9T      -0.066733
     18 C20         -4.3960     2.4180    -0.2930 c6         1 E9T      -0.060700
     19 C21         -6.5830     0.4880    -0.2820 c6         1 E9T      -0.067733
     20 C22         -5.8460     0.8720     1.0040 c6         1 E9T      -0.060700
     21 C23         -4.6520    -0.0620     1.2170 c6         1 E9T      -0.066733
     22 C24         -5.3490     2.3120     0.8960 c6         1 E9T      -0.067733
     23 C25         -2.5030    -0.9600     0.1950 ca         1 E9T      -0.157300
     24 C26         -2.6500    -2.3570     0.2940 ca         1 E9T       0.131100
     25 C27         -1.5320    -3.1810     0.4160 ca         1 E9T      -0.153000
     26 C28         -0.2560    -2.6560     0.4480 ca         1 E9T      -0.072000
     27 C29         -0.0660    -1.2800     0.3640 cp         1 E9T      -0.038000
     28 C30         -1.1970    -0.4750     0.2440 ca         1 E9T      -0.073000
     29 H1           2.9010     2.0630     1.5910 ha         1 E9T       0.107000
     30 H2           4.5660    -2.2540    -1.4440 ha         1 E9T       0.091000
     31 H3           6.7780    -1.1940    -1.4430 ha         1 E9T       0.131000
     32 H4           5.2840     2.0420     0.9110 ha         1 E9T       0.131000
     33 H7           0.6930     1.0250     1.5810 ha         1 E9T       0.094000
     34 H8           2.1890    -2.2160    -0.7950 ha         1 E9T       0.099000
     35 H11         -6.1630     0.3460    -2.3970 hc         1 E9T       0.046700
     36 H12         -4.8140    -1.3510    -1.3280 hc         1 E9T       0.044200
     37 H13         -3.7560    -0.2280    -2.1390 hc         1 E9T       0.044200
     38 H14         -2.6650     1.7530     0.7990 hc         1 E9T       0.044200
     39 H15         -2.5320     1.5720    -0.9460 hc         1 E9T       0.044200
     40 H16         -4.0050     3.4380    -0.3610 hc         1 E9T       0.046700
     41 H17         -7.4540     1.1370    -0.4190 hc         1 E9T       0.037867
     42 H18         -6.9630    -0.5370    -0.2110 hc         1 E9T       0.037867
     43 H19         -6.5230     0.7760     1.8580 hc         1 E9T       0.046700
     44 H20         -5.0270    -1.0710     1.4100 hc         1 E9T       0.044200
     45 H21         -4.1110     0.2240     2.1240 hc         1 E9T       0.044200
     46 H22         -4.8400     2.6060     1.8190 hc         1 E9T       0.037867
     47 H23         -6.1940     2.9960     0.7680 hc         1 E9T       0.037867
     48 H24         -1.6810    -4.2510     0.4940 ha         1 E9T       0.120000
     49 H25          0.5890    -3.3240     0.5560 ha         1 E9T       0.120000
     50 H26         -1.0400     0.5900     0.1580 ha         1 E9T       0.116000
     51 C18         -3.6840    -0.0030     0.0130 c6         1 E9T       0.013300
     52 H5          -4.4730     2.1700    -2.4430 hc         1 E9T       0.037867
     53 O14         -3.8310    -3.0170     0.2800 oh         1 E9T      -0.555100
     54 H6          -5.9770     2.7480    -1.7380 hc         1 E9T       0.037867
     55 H10         -4.5760    -2.4170     0.1890 ho         1 E9T       0.464000
@<TRIPOS>BOND
     1     1     2 ar  
     2     1    10 ar  
     3     1    29 1   
     4     2     3 ar  
     5     2     7 ar  
     6     3     4 ar  
     7     3    12 ar  
     8     4     5 ar  
     9     4    30 1   
    10     5     6 ar  
    11     5    31 1   
    12     6     7 ar  
    13     6     8 1   
    14     7    32 1   
    15     8    13 1   
    16     8    14 1   
    17     9    15 1   
    18     9    18 1   
    19     9    52 1   
    20     9    54 1   
    21    10    11 ar  
    22    10    33 1   
    23    11    12 ar  
    24    11    27 1   
    25    12    34 1   
    26    15    16 1   
    27    15    19 1   
    28    15    35 1   
    29    16    36 1   
    30    16    37 1   
    31    16    51 1   
    32    17    18 1   
    33    17    38 1   
    34    17    39 1   
    35    17    51 1   
    36    18    22 1   
    37    18    40 1   
    38    19    20 1   
    39    19    41 1   
    40    19    42 1   
    41    20    21 1   
    42    20    22 1   
    43    20    43 1   
    44    21    44 1   
    45    21    45 1   
    46    21    51 1   
    47    22    46 1   
    48    22    47 1   
    49    23    24 ar  
    50    23    28 ar  
    51    23    51 1   
    52    24    25 ar  
    53    24    53 1   
    54    25    26 ar  
    55    25    48 1   
    56    26    27 ar  
    57    26    49 1   
    58    27    28 ar  
    59    28    50 1   
    60    53    55 1   
@<TRIPOS>SUBSTRUCTURE
     1 E9T         1 TEMP              0 ****  ****    0 ROOT
