@<TRIPOS>MOLECULE
E9T
   55    60     1     0     0
SMALL
No Charge or Current Charge


@<TRIPOS>ATOM
      1 C4           2.8940     1.1850     0.9920 ca         1 E9T      -0.091000
      2 C5           3.9700     0.5160     0.3840 ca         1 E9T      -0.041000
      3 C6           3.7500    -0.7210    -0.2540 ca         1 E9T      -0.048000
      4 C7           4.8250    -1.3900    -0.8640 ca         1 E9T      -0.153000
      5 C8           6.1150    -0.8310    -0.8390 ca         1 E9T      -0.058000
      6 C9           6.3520     0.4100    -0.2020 ca         1 E9T      -0.124600
      7 C10          5.2620     1.0760     0.4090 ca         1 E9T      -0.096000
      8 C11          7.7480     1.0130    -0.1760 c          1 E9T       0.711600
      9 C15         -5.3480     2.0820    -1.5730 c6         1 E9T      -0.067733
     10 C1           1.6060     0.6240     0.9650 ca         1 E9T      -0.129000
     11 C2           1.3600    -0.6200     0.3290 cp         1 E9T      -0.068000
     12 C3           2.4590    -1.2800    -0.2780 ca         1 E9T      -0.080000
     13 O12          7.9120     2.0880     0.3850 o          1 E9T      -0.717000
     14 O13          8.6600     0.4040    -0.7170 o          1 E9T      -0.717000
     15 C16         -5.7940     0.5990    -1.4710 c6         1 E9T      -0.060700
     16 C17         -4.5400    -0.3120    -1.3290 c6         1 E9T      -0.066733
     17 C19         -3.3290     1.5470    -0.1350 c6         1 E9T      -0.066733
     18 C20         -4.5700     2.4720    -0.2870 c6         1 E9T      -0.060700
     19 C21         -6.7120     0.4180    -0.2270 c6         1 E9T      -0.067733
     20 C22         -5.9380     0.8240     1.0600 c6         1 E9T      -0.060700
     21 C23         -4.6860    -0.0860     1.2220 c6         1 E9T      -0.066733
     22 C24         -5.4910     2.3060     0.9510 c6         1 E9T      -0.067733
     23 C25         -2.4850    -0.9290     0.1330 ca         1 E9T      -0.157300
     24 C26         -2.6120    -2.3440     0.2510 ca         1 E9T       0.131100
     25 C27         -1.4820    -3.1630     0.3860 ca         1 E9T      -0.153000
     26 C28         -0.1970    -2.6120     0.4110 ca         1 E9T      -0.072000
     27 C29         -0.0130    -1.2180     0.3010 cp         1 E9T      -0.038000
     28 C30         -1.1630    -0.4020     0.1620 ca         1 E9T      -0.073000
     29 H1           3.0530     2.1390     1.4900 ha         1 E9T       0.107000
     30 H2           4.6660    -2.3450    -1.3590 ha         1 E9T       0.091000
     31 H3           6.9310    -1.3670    -1.3180 ha         1 E9T       0.131000
     32 H4           5.4170     2.0310     0.9050 ha         1 E9T       0.131000
     33 H7           0.7930     1.1540     1.4540 ha         1 E9T       0.094000
     34 H8           2.3020    -2.2290    -0.7840 ha         1 E9T       0.099000
     35 H11         -6.3480     0.3220    -2.3790 hc         1 E9T       0.046700
     36 H12         -4.8720    -1.3550    -1.3520 hc         1 E9T       0.044200
     37 H13         -3.8920    -0.1900    -2.2080 hc         1 E9T       0.044200
     38 H14         -2.7660     1.8580     0.7560 hc         1 E9T       0.044200
     39 H15         -2.6680     1.7030    -0.9990 hc         1 E9T       0.044200
     40 H16         -4.2410     3.5180    -0.3610 hc         1 E9T       0.046700
     41 H17         -7.6170     1.0320    -0.3330 hc         1 E9T       0.037867
     42 H18         -7.0520    -0.6250    -0.1540 hc         1 E9T       0.037867
     43 H19         -6.5930     0.7040     1.9350 hc         1 E9T       0.046700
     44 H20         -5.0280    -1.1120     1.3900 hc         1 E9T       0.044200
     45 H21         -4.1390     0.1950     2.1330 hc         1 E9T       0.044200
     46 H22         -4.9610     2.6120     1.8630 hc         1 E9T       0.037867
     47 H23         -6.3670     2.9630     0.8640 hc         1 E9T       0.037867
     48 H24         -1.6040    -4.2390     0.4770 ha         1 E9T       0.120000
     49 H25          0.6610    -3.2690     0.5310 ha         1 E9T       0.120000
     50 H26         -0.9860     0.6620     0.0630 ha         1 E9T       0.116000
     51 C18         -3.7310     0.0260    -0.0230 c6         1 E9T       0.013300
     52 H5          -4.7160     2.2290    -2.4600 hc         1 E9T       0.037867
     53 O14         -3.8210    -2.9690     0.2380 oh         1 E9T      -0.555100
     54 H6          -6.2220     2.7350    -1.7020 hc         1 E9T       0.037867
     55 H10         -4.5050    -2.2780     0.1380 ho         1 E9T       0.464000
@<TRIPOS>BOND
     1     1     2 ar  
     2     1    10 ar  
     3     1    29 1   
     4     2     3 ar  
     5     2     7 ar  
     6     3     4 ar  
     7     3    12 ar  
     8     4     5 ar  
     9     4    30 1   
    10     5     6 ar  
    11     5    31 1   
    12     6     7 ar  
    13     6     8 1   
    14     7    32 1   
    15     8    13 1   
    16     8    14 1   
    17     9    15 1   
    18     9    18 1   
    19     9    52 1   
    20     9    54 1   
    21    10    11 ar  
    22    10    33 1   
    23    11    12 ar  
    24    11    27 1   
    25    12    34 1   
    26    15    16 1   
    27    15    19 1   
    28    15    35 1   
    29    16    36 1   
    30    16    37 1   
    31    16    51 1   
    32    17    18 1   
    33    17    38 1   
    34    17    39 1   
    35    17    51 1   
    36    18    22 1   
    37    18    40 1   
    38    19    20 1   
    39    19    41 1   
    40    19    42 1   
    41    20    21 1   
    42    20    22 1   
    43    20    43 1   
    44    21    44 1   
    45    21    45 1   
    46    21    51 1   
    47    22    46 1   
    48    22    47 1   
    49    23    24 ar  
    50    23    28 ar  
    51    23    51 1   
    52    24    25 ar  
    53    24    53 1   
    54    25    26 ar  
    55    25    48 1   
    56    26    27 ar  
    57    26    49 1   
    58    27    28 ar  
    59    28    50 1   
    60    53    55 1   
@<TRIPOS>SUBSTRUCTURE
     1 E9T         1 TEMP              0 ****  ****    0 ROOT
