@<TRIPOS>MOLECULE
E9V
   22    22     1     0     0
SMALL
abcg2


@<TRIPOS>ATOM
      1 N            2.7370    -2.0190     2.5740 n7         1 E9V      -0.854400
      2 CA           3.8420    -2.6350     3.2920 c3         1 E9V       0.023500
      3 CB           4.6770    -3.5510     2.4020 c3         1 E9V       0.006900
      4 CG           3.9080    -4.6550     1.7590 cc         1 E9V      -0.150300
      5 ND1          4.4930    -5.5360     0.8890 na         1 E9V      -0.317500
      6 CD2          2.6170    -5.0990     1.8660 cd         1 E9V       0.225900
      7 CE1          3.5660    -6.4450     0.5180 cc         1 E9V       0.346400
      8 NE2          2.4160    -6.2120     1.0930 nd         1 E9V      -0.695000
      9 C            4.7320    -1.6200     4.0770 c          1 E9V       0.696000
     10 O            5.8630    -2.0120     4.4280 o          1 E9V      -0.730000
     11 CN2          3.1280    -1.2780     1.3910 c3         1 E9V       0.157100
     12 H            2.3140    -1.3630     3.2180 hn         1 E9V       0.417000
     13 HA           3.3870    -3.2740     4.0630 h1         1 E9V       0.044700
     14 HB2          5.4670    -3.9780     3.0220 hc         1 E9V       0.054200
     15 HB3          5.1970    -2.9690     1.6340 hc         1 E9V       0.054200
     16 HD1          5.4520    -5.5110     0.5780 hn         1 E9V       0.337000
     17 HD2          1.8220    -4.6620     2.4500 h4         1 E9V       0.048100
     18 HE1          3.7850    -7.2450    -0.1720 h5         1 E9V       0.032100
     19 HN3          2.2820    -0.6810     1.0500 h1         1 E9V       0.011700
     20 H1           3.9750    -0.5930     1.5340 h1         1 E9V       0.011700
     21 HN2          3.3860    -1.9560     0.5750 h1         1 E9V       0.011700
     22 OXT          4.2110    -0.5180     4.3400 o          1 E9V      -0.730000
@<TRIPOS>BOND
     1     1     2 1   
     2     1    11 1   
     3     1    12 1   
     4     2     3 1   
     5     2     9 1   
     6     2    13 1   
     7     3     4 1   
     8     3    14 1   
     9     3    15 1   
    10     4     5 1   
    11     4     6 2   
    12     5     7 1   
    13     5    16 1   
    14     6     8 1   
    15     6    17 1   
    16     7     8 2   
    17     7    18 1   
    18     9    10 1   
    19     9    22 1   
    20    11    19 1   
    21    11    20 1   
    22    11    21 1   
@<TRIPOS>SUBSTRUCTURE
     1 E9V         1 TEMP              0 ****  ****    0 ROOT
