@<TRIPOS>MOLECULE
E9V
   22    22     1     0     0
SMALL
No Charge or Current Charge


@<TRIPOS>ATOM
      1 N            2.7520    -1.9750     2.4060 n7         1 E9V      -0.854400
      2 CA           3.8180    -2.6230     3.2610 c3         1 E9V       0.023500
      3 CB           4.6900    -3.6300     2.4470 c3         1 E9V       0.006900
      4 CG           3.9310    -4.7660     1.7990 cc         1 E9V      -0.150300
      5 ND1          4.4660    -5.6300     0.8670 na         1 E9V      -0.317500
      6 CD2          2.6350    -5.1920     1.9740 cd         1 E9V       0.225900
      7 CE1          3.4950    -6.5340     0.5140 cc         1 E9V       0.346400
      8 NE2          2.3740    -6.2920     1.1750 nd         1 E9V      -0.695000
      9 C            4.6960    -1.5980     4.0910 c          1 E9V       0.696000
     10 O            5.8520    -1.3760     3.7530 o          1 E9V      -0.730000
     11 CN2          3.2230    -1.0860     1.3260 c3         1 E9V       0.157100
     12 H            2.1600    -1.4080     3.0290 hn         1 E9V       0.417000
     13 HA           3.3090    -3.2250     4.0270 h1         1 E9V       0.044700
     14 HB2          5.4350    -4.0610     3.1270 hc         1 E9V       0.054200
     15 HB3          5.2610    -3.0880     1.6840 hc         1 E9V       0.054200
     16 HD1          5.4090    -5.6160     0.4960 hn         1 E9V       0.337000
     17 HD2          1.8810    -4.7770     2.6320 h4         1 E9V       0.048100
     18 HE1          3.6640    -7.3240    -0.2080 h5         1 E9V       0.032100
     19 HN3          2.3680    -0.6470     0.7950 h1         1 E9V       0.011700
     20 H1           3.8300    -0.2640     1.7300 h1         1 E9V       0.011700
     21 HN2          3.8270    -1.6370     0.5930 h1         1 E9V       0.011700
     22 OXT          4.1780    -1.0630     5.0630 o          1 E9V      -0.730000
@<TRIPOS>BOND
     1     1     2 1   
     2     1    11 1   
     3     1    12 1   
     4     2     3 1   
     5     2     9 1   
     6     2    13 1   
     7     3     4 1   
     8     3    14 1   
     9     3    15 1   
    10     4     5 1   
    11     4     6 2   
    12     5     7 1   
    13     5    16 1   
    14     6     8 1   
    15     6    17 1   
    16     7     8 2   
    17     7    18 1   
    18     9    10 1   
    19     9    22 1   
    20    11    19 1   
    21    11    20 1   
    22    11    21 1   
@<TRIPOS>SUBSTRUCTURE
     1 E9V         1 TEMP              0 ****  ****    0 ROOT
