@<TRIPOS>MOLECULE
E9W
   47    49     1     0     0
SMALL
bcc


@<TRIPOS>ATOM
      1 C2           3.9640     3.5660    -0.4230 ca         1 E9W       0.728900
      2 C4           2.4110     2.0220    -0.2930 ca         1 E9W       0.492800
      3 C5           1.3940     2.9450    -0.4520 ca         1 E9W      -0.232200
      4 C6           1.7870     4.2860    -0.5990 ca         1 E9W       0.786200
      5 N9           1.7840     0.8090    -0.1680 na         1 E9W      -0.252000
      6 C8           0.4350     1.0690    -0.2680 cc         1 E9W       0.399700
      7 CAA         -7.9730     0.6930    -0.1190 c1         1 E9W      -0.078500
      8 CAB         -6.9630     0.0670     0.0550 c1         1 E9W      -0.208100
      9 CAC         -5.7380    -0.6920     0.2750 c3         1 E9W       0.195100
     10 CAE         -3.3410    -0.3280     0.0530 c          1 E9W       0.693100
     11 CAG         -2.2400     0.7120    -0.0140 c3         1 E9W      -0.099300
     12 CAK          2.4540    -0.4320     0.1160 c5         1 E9W       0.262800
     13 CAM          1.9330    -2.6900     0.0680 c5         1 E9W       0.109100
     14 CAN          0.5410    -3.2350     0.3250 c3         1 E9W       0.115800
     15 CAR          2.6530    -2.3990     1.3960 c5         1 E9W       0.086100
     16 CAT          2.3470    -0.9070     1.5640 c5         1 E9W       0.114100
     17 N1           3.0970     4.5600    -0.5780 nb         1 E9W      -0.811000
     18 N3           3.7140     2.2750    -0.2720 nb         1 E9W      -0.743000
     19 N6           0.9140     5.2820    -0.7690 nv         1 E9W      -0.944500
     20 N7           0.1680     2.3290    -0.4420 nd         1 E9W      -0.542100
     21 NAD         -4.5790     0.1700     0.1480 ns         1 E9W      -0.546900
     22 NAO         -0.2220    -3.2380    -0.9380 n2         1 E9W      -0.036200
     23 NAP         -1.2290    -3.7630    -1.1320 n1         1 E9W       0.235000
     24 NAQ         -2.3010    -4.1380    -1.4050 n2         1 E9W      -0.189400
     25 OAF         -3.0940    -1.5240     0.0240 o          1 E9W      -0.668100
     26 OAL          1.8780    -1.4610    -0.6480 os         1 E9W      -0.384600
     27 OAS          4.0380    -2.5470     1.2860 oh         1 E9W      -0.537800
     28 OAU          3.2200    -0.1820     2.3630 oh         1 E9W      -0.528800
     29 SAH         -0.7170    -0.2310    -0.2240 ss         1 E9W      -0.181300
     30 H1           5.0100     3.8530    -0.4170 h5         1 E9W       0.060100
     31 H2          -8.8700     1.2480    -0.2740 ha         1 E9W       0.181500
     32 H3          -5.7710    -1.1570     1.2650 h1         1 E9W       0.069200
     33 H4          -5.6740    -1.5010    -0.4540 h1         1 E9W       0.069200
     34 H5          -2.3920     1.3950    -0.8510 h1         1 E9W       0.109700
     35 H6          -2.2070     1.3020     0.9030 h1         1 E9W       0.109700
     36 H7           3.5060    -0.2710    -0.1470 h2         1 E9W       0.144700
     37 H8           2.4890    -3.4190    -0.5280 h1         1 E9W       0.093700
     38 H9           0.5910    -4.2610     0.6910 h1         1 E9W       0.112200
     39 H10         -0.0410    -2.6360     1.0270 h1         1 E9W       0.112200
     40 H11          2.2430    -3.0000     2.2180 h1         1 E9W       0.054700
     41 H12          1.3050    -0.8010     1.8970 h1         1 E9W       0.049700
     42 H13         -0.0760     5.1170    -0.7340 hn         1 E9W       0.456300
     43 H14          1.2370     6.2330    -0.8140 hn         1 E9W       0.456300
     44 H15         -4.7090     1.1660     0.2310 hn         1 E9W       0.338500
     45 H17          4.2430    -3.4820     1.1880 ho         1 E9W       0.416000
     46 H18          3.0080    -0.3470     3.2860 ho         1 E9W       0.423000
     47 H16         -2.3550    -5.0910    -1.7820 hn         1 E9W       0.509400
@<TRIPOS>BOND
     1     1    17 ar  
     2     1    18 ar  
     3     1    30 1   
     4     2     3 ar  
     5     2     5 1   
     6     2    18 ar  
     7     3     4 ar  
     8     3    20 1   
     9     4    17 ar  
    10     4    19 1   
    11     5     6 1   
    12     5    12 1   
    13     6    20 2   
    14     6    29 1   
    15     7     8 3   
    16     7    31 1   
    17     8     9 1   
    18     9    21 1   
    19     9    32 1   
    20     9    33 1   
    21    10    11 1   
    22    10    21 1   
    23    10    25 2   
    24    11    29 1   
    25    11    34 1   
    26    11    35 1   
    27    12    16 1   
    28    12    26 1   
    29    12    36 1   
    30    13    14 1   
    31    13    15 1   
    32    13    26 1   
    33    13    37 1   
    34    14    22 1   
    35    14    38 1   
    36    14    39 1   
    37    15    16 1   
    38    15    27 1   
    39    15    40 1   
    40    16    28 1   
    41    16    41 1   
    42    19    42 1   
    43    19    43 1   
    44    21    44 1   
    45    22    23 2   
    46    23    24 2   
    47    24    47 1   
    48    27    45 1   
    49    28    46 1   
@<TRIPOS>SUBSTRUCTURE
     1 E9W         1 TEMP              0 ****  ****    0 ROOT
