@<TRIPOS>MOLECULE
E9W
   47    49     1     0     0
SMALL
No Charge or Current Charge


@<TRIPOS>ATOM
      1 C2           3.9280     3.5260    -0.8780 ca         1 E9W       0.202900
      2 C4           2.3780     1.9300    -0.3490 ca         1 E9W       0.164500
      3 C5           1.3670     2.8400    -0.5720 ca         1 E9W      -0.101600
      4 C6           1.7260     4.1430    -0.9730 ca         1 E9W       0.457900
      5 N9           1.7610     0.7660     0.0210 na         1 E9W      -0.281300
      6 C8           0.3950     1.0500     0.0200 cc         1 E9W       0.399700
      7 CAA         -8.0330     0.7790     0.7460 c1         1 E9W      -0.166000
      8 CAB         -7.1210     0.0960     0.3370 c1         1 E9W      -0.208100
      9 CAC         -5.9940    -0.7050    -0.1540 c3         1 E9W       0.195100
     10 CAE         -3.5380    -0.3680    -0.4620 c          1 E9W       0.626100
     11 CAG         -2.3850     0.6270    -0.3070 c3         1 E9W      -0.051400
     12 CAK          2.4280    -0.4630     0.4650 c5         1 E9W       0.315300
     13 CAM          2.1420    -2.8070     0.3540 c5         1 E9W       0.132300
     14 CAN          0.7270    -3.4460     0.4390 c3         1 E9W       0.115800
     15 CAR          2.7420    -2.4180     1.7540 c5         1 E9W       0.109300
     16 CAT          2.1630    -0.9820     1.9140 c5         1 E9W       0.137300
     17 N1           3.0130     4.4940    -1.1250 nb         1 E9W      -0.285000
     18 N3           3.6780     2.2510    -0.4960 nb         1 E9W      -0.217000
     19 N6           0.8040     5.1120    -1.2170 nv         1 E9W      -1.054900
     20 N7           0.0950     2.2980    -0.3570 nd         1 E9W      -0.542100
     21 NAD         -4.7750     0.0890    -0.0830 ns         1 E9W      -0.479900
     22 NAO          0.1570    -3.6230    -0.9000 n2         1 E9W      -0.036200
     23 NAP         -1.0540    -3.8920    -0.9530 n1         1 E9W       0.235000
     24 NAQ         -1.5700    -3.3340    -1.9290 n2         1 E9W      -0.189400
     25 OAF         -3.3780    -1.5020    -0.9000 o          1 E9W      -0.668100
     26 OAL          2.0810    -1.5650    -0.4050 os         1 E9W      -0.431000
     27 OAS          4.1820    -2.3810     1.7540 oh         1 E9W      -0.660000
     28 OAU          2.8620    -0.2610     2.9390 oh         1 E9W      -0.651000
     29 SAH         -0.8230    -0.1930     0.2810 ss         1 E9W      -0.229200
     30 H1           4.9750     3.8020    -1.0000 h5         1 E9W       0.060100
     31 H2          -8.8500     1.3750     1.1060 ha         1 E9W       0.269000
     32 H3          -5.8820    -1.6060     0.4630 h1         1 E9W       0.069200
     33 H4          -6.1770    -1.0060    -1.1940 h1         1 E9W       0.069200
     34 H5          -2.2200     1.0880    -1.2870 h1         1 E9W       0.109700
     35 H6          -2.6710     1.4100     0.4040 h1         1 E9W       0.109700
     36 H7           3.5050    -0.2700     0.3630 h2         1 E9W       0.144700
     37 H8           2.8000    -3.5100    -0.1760 h1         1 E9W       0.093700
     38 H9           0.8140    -4.4170     0.9440 h1         1 E9W       0.112200
     39 H10          0.0780    -2.8170     1.0590 h1         1 E9W       0.112200
     40 H11          2.3790    -3.0840     2.5490 h1         1 E9W       0.054700
     41 H12          1.0900    -1.0090     2.1380 h1         1 E9W       0.049700
     42 H13         -0.1430     4.9270    -0.8960 hn         1 E9W       0.511500
     43 H14          1.1090     6.0820    -1.1990 hn         1 E9W       0.511500
     44 H15         -4.8410     1.0370     0.2650 hn         1 E9W       0.338500
     45 H17          4.5110    -3.3120     1.7520 ho         1 E9W       0.515000
     46 H18          3.7540    -0.6860     2.9770 ho         1 E9W       0.522000
     47 H16         -2.3170    -2.6960    -1.5990 hn         1 E9W       0.509400
@<TRIPOS>BOND
     1     1    17 ar  
     2     1    18 ar  
     3     1    30 1   
     4     2     3 ar  
     5     2     5 1   
     6     2    18 ar  
     7     3     4 ar  
     8     3    20 1   
     9     4    17 ar  
    10     4    19 1   
    11     5     6 1   
    12     5    12 1   
    13     6    20 2   
    14     6    29 1   
    15     7     8 3   
    16     7    31 1   
    17     8     9 1   
    18     9    21 1   
    19     9    32 1   
    20     9    33 1   
    21    10    11 1   
    22    10    21 1   
    23    10    25 2   
    24    11    29 1   
    25    11    34 1   
    26    11    35 1   
    27    12    16 1   
    28    12    26 1   
    29    12    36 1   
    30    13    14 1   
    31    13    15 1   
    32    13    26 1   
    33    13    37 1   
    34    14    22 1   
    35    14    38 1   
    36    14    39 1   
    37    15    16 1   
    38    15    27 1   
    39    15    40 1   
    40    16    28 1   
    41    16    41 1   
    42    19    42 1   
    43    19    43 1   
    44    21    44 1   
    45    22    23 2   
    46    23    24 2   
    47    24    47 1   
    48    27    45 1   
    49    28    46 1   
@<TRIPOS>SUBSTRUCTURE
     1 E9W         1 TEMP              0 ****  ****    0 ROOT
