@<TRIPOS>MOLECULE
E9Y
   41    44     1     0     0
SMALL
No Charge or Current Charge


@<TRIPOS>ATOM
      1 C10         16.8890   -63.8510   -43.6070 ca         1 E9Y      -0.177000
      2 C13         18.2680   -65.3100   -44.9700 ca         1 E9Y      -0.132000
      3 C15         19.1360   -67.5350   -44.1350 c6         1 E9Y      -0.030100
      4 C17         18.6670   -68.0740   -41.7010 c6         1 E9Y       0.232800
      5 C11         17.5540   -64.1130   -44.8210 ca         1 E9Y       0.127100
      6 C12         16.8390   -61.9760   -45.8290 c3         1 E9Y       0.147900
      7 C14         18.3190   -66.2570   -43.9280 ca         1 E9Y      -0.066300
      8 C16         18.7540   -68.6400   -43.1310 c6         1 E9Y      -0.100400
      9 C2          16.8920   -66.4540   -38.1910 ca         1 E9Y       0.212300
     10 C3          14.9020   -66.7220   -39.2490 ca         1 E9Y       0.309300
     11 C4          15.5450   -66.8920   -40.4300 ca         1 E9Y      -0.403900
     12 C5          14.5300   -67.1420   -41.4010 cc         1 E9Y       0.432900
     13 C6          14.7110   -67.4680   -42.8560 c3         1 E9Y      -0.122400
     14 C7          16.9360   -66.8210   -40.4680 ca         1 E9Y       0.466900
     15 C8          17.6440   -66.0080   -42.7040 ca         1 E9Y       0.252000
     16 C9          16.9410   -64.7900   -42.5610 ca         1 E9Y      -0.091000
     17 N1          15.5420   -66.4980   -38.0910 nb         1 E9Y      -0.207000
     18 N2          13.3230   -67.1060   -40.8290 nd         1 E9Y      -0.303700
     19 N3          17.6840   -66.9590   -41.6430 nh         1 E9Y      -0.803100
     20 N4          17.6210   -66.6090   -39.3250 nb         1 E9Y      -0.286000
     21 O1          13.5470   -66.8270   -39.4140 os         1 E9Y      -0.242300
     22 O2          17.5420   -63.2310   -45.8820 os         1 E9Y      -0.348100
     23 H1          16.3340   -62.9310   -43.4530 ha         1 E9Y       0.125000
     24 H2          18.7890   -65.5030   -45.9040 ha         1 E9Y       0.130000
     25 H3          19.0060   -67.9090   -45.1600 hc         1 E9Y       0.056700
     26 H4          20.2030   -67.2960   -44.0250 hc         1 E9Y       0.056700
     27 H5          18.3690   -68.8880   -41.0220 h1         1 E9Y       0.070700
     28 H6          19.6600   -67.7250   -41.3780 h1         1 E9Y       0.070700
     29 H7          16.9580   -61.4330   -46.7760 h1         1 E9Y       0.043700
     30 H8          15.7660   -62.1360   -45.6620 h1         1 E9Y       0.043700
     31 H9          17.2310   -61.3420   -45.0230 h1         1 E9Y       0.043700
     32 H10         17.7850   -69.0750   -43.4110 hc         1 E9Y       0.055200
     33 H11         19.4870   -69.4570   -43.1700 hc         1 E9Y       0.055200
     34 H12         18.6070   -65.6860   -37.1000 hc         1 E9Y       0.065367
     35 H13         17.0900   -65.6180   -36.1950 hc         1 E9Y       0.065367
     36 H14         17.9140   -67.1700   -36.4240 hc         1 E9Y       0.065367
     37 H15         13.8130   -67.9440   -43.2660 hc         1 E9Y       0.064033
     38 H16         14.9040   -66.5600   -43.4370 hc         1 E9Y       0.064033
     39 H17         15.5470   -68.1590   -43.0000 hc         1 E9Y       0.064033
     40 H18         16.4280   -64.5570   -41.6330 ha         1 E9Y       0.128000
     41 C1          17.6670   -66.2180   -36.9080 c3         1 E9Y      -0.137400
@<TRIPOS>BOND
     1     1     5 ar  
     2     1    16 ar  
     3     1    23 1   
     4     2     5 ar  
     5     2     7 ar  
     6     2    24 1   
     7     3     7 1   
     8     3     8 1   
     9     3    25 1   
    10     3    26 1   
    11     4     8 1   
    12     4    19 1   
    13     4    27 1   
    14     4    28 1   
    15     5    22 1   
    16     6    22 1   
    17     6    29 1   
    18     6    30 1   
    19     6    31 1   
    20     7    15 ar  
    21     8    32 1   
    22     8    33 1   
    23     9    17 ar  
    24     9    20 ar  
    25     9    41 1   
    26    10    11 ar  
    27    10    17 ar  
    28    10    21 1   
    29    11    12 1   
    30    11    14 ar  
    31    12    13 1   
    32    12    18 2   
    33    13    37 1   
    34    13    38 1   
    35    13    39 1   
    36    14    19 1   
    37    14    20 ar  
    38    15    16 ar  
    39    15    19 1   
    40    16    40 1   
    41    18    21 1   
    42    34    41 1   
    43    35    41 1   
    44    36    41 1   
@<TRIPOS>SUBSTRUCTURE
     1 E9Y         1 TEMP              0 ****  ****    0 ROOT
