@<TRIPOS>MOLECULE
E9Y
   41    44     1     0     0
SMALL
abcg2


@<TRIPOS>ATOM
      1 C10         16.9130   -63.8610   -43.6980 ca         1 E9Y      -0.177000
      2 C13         17.9820   -65.5750   -45.0130 ca         1 E9Y      -0.132000
      3 C15         18.9960   -67.6340   -43.9910 c6         1 E9Y      -0.030100
      4 C17         19.1890   -67.4640   -41.4870 c6         1 E9Y       0.232800
      5 C11         17.3240   -64.3470   -44.9400 ca         1 E9Y       0.127100
      6 C12         16.4760   -62.4300   -46.0910 c3         1 E9Y       0.147900
      7 C14         18.2080   -66.3490   -43.8810 ca         1 E9Y      -0.066300
      8 C16         19.0850   -68.4130   -42.6770 c6         1 E9Y      -0.100400
      9 C2          16.8010   -66.8850   -38.1400 ca         1 E9Y       0.212300
     10 C3          14.9840   -66.5790   -39.3710 ca         1 E9Y       0.309300
     11 C4          15.6860   -66.6000   -40.5730 ca         1 E9Y      -0.403900
     12 C5          14.6540   -66.6340   -41.5760 cc         1 E9Y       0.432900
     13 C6          14.7370   -66.8070   -43.0530 c3         1 E9Y      -0.122400
     14 C7          17.0930   -66.7070   -40.4420 ca         1 E9Y       0.466900
     15 C8          17.7410   -65.8790   -42.6460 ca         1 E9Y       0.252000
     16 C9          17.1400   -64.6260   -42.5630 ca         1 E9Y      -0.091000
     17 N1          15.4730   -66.6820   -38.1490 nb         1 E9Y      -0.207000
     18 N2          13.4740   -66.5810   -41.0190 nd         1 E9Y      -0.303700
     19 N3          17.9740   -66.6410   -41.4750 nh         1 E9Y      -0.803100
     20 N4          17.6000   -66.9020   -39.2090 nb         1 E9Y      -0.286000
     21 O1          13.6640   -66.5190   -39.6070 os         1 E9Y      -0.242300
     22 O2          17.1430   -63.6910   -46.1190 os         1 E9Y      -0.348100
     23 H1          16.4310   -62.9000   -43.6010 ha         1 E9Y       0.125000
     24 H2          18.3260   -65.9220   -45.9800 ha         1 E9Y       0.130000
     25 H3          18.5680   -68.2610   -44.7760 hc         1 E9Y       0.056700
     26 H4          20.0050   -67.3740   -44.3260 hc         1 E9Y       0.056700
     27 H5          19.2480   -68.0010   -40.5470 h1         1 E9Y       0.070700
     28 H6          20.0660   -66.8170   -41.5740 h1         1 E9Y       0.070700
     29 H7          16.4280   -62.0950   -47.1240 h1         1 E9Y       0.043700
     30 H8          15.4650   -62.5300   -45.6890 h1         1 E9Y       0.043700
     31 H9          17.0340   -61.7030   -45.4960 h1         1 E9Y       0.043700
     32 H10         18.1950   -69.0310   -42.5380 hc         1 E9Y       0.055200
     33 H11         19.9480   -69.0810   -42.6940 hc         1 E9Y       0.055200
     34 H12         18.5120   -67.2230   -36.8980 hc         1 E9Y       0.065367
     35 H13         17.2250   -66.2490   -36.1480 hc         1 E9Y       0.065367
     36 H14         17.0100   -67.9860   -36.3250 hc         1 E9Y       0.065367
     37 H15         13.7490   -67.0370   -43.4490 hc         1 E9Y       0.064033
     38 H16         15.1130   -65.9070   -43.5360 hc         1 E9Y       0.064033
     39 H17         15.4200   -67.6220   -43.2940 hc         1 E9Y       0.064033
     40 H18         16.8310   -64.2430   -41.5990 ha         1 E9Y       0.128000
     41 C1          17.4360   -67.0990   -36.8010 c3         1 E9Y      -0.137400
@<TRIPOS>BOND
     1     1     5 ar  
     2     1    16 ar  
     3     1    23 1   
     4     2     5 ar  
     5     2     7 ar  
     6     2    24 1   
     7     3     7 1   
     8     3     8 1   
     9     3    25 1   
    10     3    26 1   
    11     4     8 1   
    12     4    19 1   
    13     4    27 1   
    14     4    28 1   
    15     5    22 1   
    16     6    22 1   
    17     6    29 1   
    18     6    30 1   
    19     6    31 1   
    20     7    15 ar  
    21     8    32 1   
    22     8    33 1   
    23     9    17 ar  
    24     9    20 ar  
    25     9    41 1   
    26    10    11 ar  
    27    10    17 ar  
    28    10    21 1   
    29    11    12 1   
    30    11    14 ar  
    31    12    13 1   
    32    12    18 2   
    33    13    37 1   
    34    13    38 1   
    35    13    39 1   
    36    14    19 1   
    37    14    20 ar  
    38    15    16 ar  
    39    15    19 1   
    40    16    40 1   
    41    18    21 1   
    42    34    41 1   
    43    35    41 1   
    44    36    41 1   
@<TRIPOS>SUBSTRUCTURE
     1 E9Y         1 TEMP              0 ****  ****    0 ROOT
