@<TRIPOS>MOLECULE
E9Z
   42    44     1     0     0
SMALL
No Charge or Current Charge


@<TRIPOS>ATOM
      1 N1          -1.5490    -1.4890     0.3240 nb         1 E9Z      -0.265000
      2 C2          -1.7030    -0.1530     0.2840 ca         1 E9Z       0.429900
      3 N3          -2.8590     0.5220     0.2450 nb         1 E9Z      -0.327000
      4 C4          -3.9810    -0.2170     0.2190 ca         1 E9Z       0.442900
      5 C5          -3.9430    -1.6230     0.2440 ca         1 E9Z      -0.127000
      6 C6          -2.6760    -2.2260     0.2990 ca         1 E9Z       0.187900
      7 CAA          8.9740    -0.1730    -1.3020 c3         1 E9Z       0.144900
      8 CAC          1.3640    -0.6920    -0.3680 ca         1 E9Z      -0.114000
      9 CAD          1.6660     1.3640     0.8810 ca         1 E9Z      -0.114000
     10 CAE          2.7590    -0.8730    -0.4060 ca         1 E9Z      -0.145000
     11 CAF          3.0630     1.1880     0.8460 ca         1 E9Z      -0.145000
     12 CAH          7.3550     0.1730     0.4650 c3         1 E9Z       0.157600
     13 CAI          5.9360     0.7290     0.7200 c3         1 E9Z       0.164600
     14 CAJ         -6.6610     2.3970    -0.4980 cx         1 E9Z      -0.132400
     15 CAK         -5.3440     2.5610    -1.2150 cx         1 E9Z      -0.132400
     16 NAN         -0.5770     0.6520     0.3410 nu         1 E9Z      -0.923900
     17 NAO         -5.1960     0.4650     0.1700 nu         1 E9Z      -0.901100
     18 OAP          7.6730     0.3160    -0.9340 os         1 E9Z      -0.440000
     19 OAQ          4.9730    -0.1690     0.1310 os         1 E9Z      -0.334100
     20 CAS          0.8040     0.4230     0.2880 ca         1 E9Z       0.280000
     21 CAT          3.6140     0.0600     0.2010 ca         1 E9Z       0.118100
     22 CAW         -5.3900     1.8890     0.1340 cx         1 E9Z       0.175500
     23 Cl5         -5.4100    -2.6110     0.2130 cl         1 E9Z      -0.193000
     24 H6          -2.5590    -3.3080     0.3260 h4         1 E9Z       0.031100
     25 HAA          9.7610     0.3640    -0.7570 h1         1 E9Z       0.029033
     26 HAAA         9.0650    -1.2440    -1.0800 h1         1 E9Z       0.029033
     27 HAAB         9.1440    -0.0310    -2.3770 h1         1 E9Z       0.029033
     28 HAC          0.7280    -1.4150    -0.8670 ha         1 E9Z       0.130500
     29 HAD          1.2530     2.2360     1.3820 ha         1 E9Z       0.130500
     30 HAE          3.1790    -1.7370    -0.9150 ha         1 E9Z       0.122000
     31 HAF          3.6950     1.9330     1.3220 ha         1 E9Z       0.122000
     32 HAH          8.0710     0.7370     1.0780 h1         1 E9Z       0.031700
     33 HAHA         7.3970    -0.8800     0.7740 h1         1 E9Z       0.031700
     34 HAI          5.7750     0.8030     1.8030 h1         1 E9Z       0.041200
     35 HAIA         5.8540     1.7350     0.2870 h1         1 E9Z       0.041200
     36 HAJ         -7.1160     3.2850    -0.0650 hc         1 E9Z       0.079200
     37 HAJA        -7.3670     1.6720    -0.8950 hc         1 E9Z       0.079200
     38 HAK         -5.1580     1.9390    -2.0870 hc         1 E9Z       0.079200
     39 HAKA        -4.9110     3.5560    -1.2640 hc         1 E9Z       0.079200
     40 HNAN        -0.8250     1.6230     0.5290 hn         1 E9Z       0.507000
     41 HNAO        -6.0040    -0.1600     0.1720 hn         1 E9Z       0.513000
     42 HAW         -4.9920     2.4380     0.9920 h1         1 E9Z       0.088700
@<TRIPOS>BOND
     1     1     2 ar  
     2     1     6 ar  
     3     2     3 ar  
     4     2    16 1   
     5     3     4 ar  
     6     4     5 ar  
     7     4    17 1   
     8     5     6 ar  
     9     5    23 1   
    10     6    24 1   
    11     7    18 1   
    12     7    25 1   
    13     7    26 1   
    14     7    27 1   
    15     8    10 ar  
    16     8    20 ar  
    17     8    28 1   
    18     9    11 ar  
    19     9    20 ar  
    20     9    29 1   
    21    10    21 ar  
    22    10    30 1   
    23    11    21 ar  
    24    11    31 1   
    25    12    13 1   
    26    12    18 1   
    27    12    32 1   
    28    12    33 1   
    29    13    19 1   
    30    13    34 1   
    31    13    35 1   
    32    14    15 1   
    33    14    22 1   
    34    14    36 1   
    35    14    37 1   
    36    15    22 1   
    37    15    38 1   
    38    15    39 1   
    39    16    20 1   
    40    16    40 1   
    41    17    22 1   
    42    17    41 1   
    43    19    21 1   
    44    22    42 1   
@<TRIPOS>SUBSTRUCTURE
     1 E9Z         1 TEMP              0 ****  ****    0 ROOT
