@<TRIPOS>MOLECULE
E9Z
   42    44     1     0     0
SMALL
bcc


@<TRIPOS>ATOM
      1 N1          -1.5000    -1.5000    -0.1010 nb         1 E9Z      -0.791000
      2 C2          -1.6830    -0.2010     0.0990 ca         1 E9Z       0.955900
      3 N3          -2.8590     0.4250     0.1960 nb         1 E9Z      -0.853000
      4 C4          -3.9650    -0.2920     0.0720 ca         1 E9Z       0.771200
      5 C5          -3.8660    -1.6900    -0.1400 ca         1 E9Z      -0.349200
      6 C6          -2.6110    -2.2270    -0.2150 ca         1 E9Z       0.516200
      7 CAA          8.8240    -0.4680    -0.9850 c3         1 E9Z       0.121700
      8 CAC          1.3550    -0.8570    -0.0740 ca         1 E9Z      -0.132000
      9 CAD          1.5980     1.4560     0.4840 ca         1 E9Z      -0.132000
     10 CAE          2.7340    -0.9840    -0.0740 ca         1 E9Z      -0.163000
     11 CAF          2.9790     1.3300     0.4820 ca         1 E9Z      -0.163000
     12 CAH          7.1880     0.4340     0.4120 c3         1 E9Z       0.134400
     13 CAI          5.7720     0.9430     0.4530 c3         1 E9Z       0.141400
     14 CAJ         -6.4250     2.4340    -0.2400 cx         1 E9Z      -0.132400
     15 CAK         -5.0220     2.6970    -0.6930 cx         1 E9Z      -0.132400
     16 NAN         -0.6120     0.6250     0.2320 nu         1 E9Z      -0.730300
     17 NAO         -5.1520     0.3280     0.1480 nu         1 E9Z      -0.845900
     18 OAP          7.5110     0.0220    -0.8900 os         1 E9Z      -0.393600
     19 OAQ          4.8960    -0.1340     0.1840 os         1 E9Z      -0.310900
     20 CAS          0.7600     0.3760     0.2100 ca         1 E9Z       0.141600
     21 CAT          3.5650     0.0980     0.2040 ca         1 E9Z       0.118100
     22 CAW         -5.2840     1.7220     0.4090 cx         1 E9Z       0.175500
     23 CL5         -5.2790    -2.6740    -0.3020 cl         1 E9Z      -0.101400
     24 H6          -2.4840    -3.2920    -0.3760 h4         1 E9Z       0.031100
     25 HAA          9.5670     0.2930    -0.7170 h1         1 E9Z       0.029033
     26 HAAA         8.9870    -1.3370    -0.3360 h1         1 E9Z       0.029033
     27 HAAB         8.9970    -0.7710    -2.0170 h1         1 E9Z       0.029033
     28 HAC          0.7450    -1.7180    -0.2910 ha         1 E9Z       0.148500
     29 HAD          1.1690     2.4260     0.7100 ha         1 E9Z       0.148500
     30 HAE          3.1740    -1.9480    -0.2980 ha         1 E9Z       0.140000
     31 HAF          3.5720     2.2070     0.7030 ha         1 E9Z       0.140000
     32 HAH          7.8460     1.2480     0.7480 h1         1 E9Z       0.031700
     33 HAHA         7.3110    -0.3890     1.1310 h1         1 E9Z       0.031700
     34 HAI          5.5860     1.3630     1.4480 h1         1 E9Z       0.041200
     35 HAIA         5.6350     1.7490    -0.2780 h1         1 E9Z       0.041200
     36 HAJ         -6.9370     3.1910     0.3400 hc         1 E9Z       0.079200
     37 HAJA        -7.0680     1.8600    -0.8960 hc         1 E9Z       0.079200
     38 HAK         -4.7170     2.2980    -1.6520 hc         1 E9Z       0.079200
     39 HAKA        -4.5580     3.6380    -0.4270 hc         1 E9Z       0.079200
     40 HNAN        -0.8720     1.5840     0.4030 hn         1 E9Z       0.451800
     41 HNAO        -5.9840    -0.2390     0.1610 hn         1 E9Z       0.457800
     42 HAW         -5.0100     2.0340     1.4120 h1         1 E9Z       0.088700
@<TRIPOS>BOND
     1     1     2 ar  
     2     1     6 ar  
     3     2     3 ar  
     4     2    16 1   
     5     3     4 ar  
     6     4     5 ar  
     7     4    17 1   
     8     5     6 ar  
     9     5    23 1   
    10     6    24 1   
    11     7    18 1   
    12     7    25 1   
    13     7    26 1   
    14     7    27 1   
    15     8    10 ar  
    16     8    20 ar  
    17     8    28 1   
    18     9    11 ar  
    19     9    20 ar  
    20     9    29 1   
    21    10    21 ar  
    22    10    30 1   
    23    11    21 ar  
    24    11    31 1   
    25    12    13 1   
    26    12    18 1   
    27    12    32 1   
    28    12    33 1   
    29    13    19 1   
    30    13    34 1   
    31    13    35 1   
    32    14    15 1   
    33    14    22 1   
    34    14    36 1   
    35    14    37 1   
    36    15    22 1   
    37    15    38 1   
    38    15    39 1   
    39    16    20 1   
    40    16    40 1   
    41    17    22 1   
    42    17    41 1   
    43    19    21 1   
    44    22    42 1   
@<TRIPOS>SUBSTRUCTURE
     1 E9Z         1 TEMP              0 ****  ****    0 ROOT
