@<TRIPOS>MOLECULE
EA0
   39    40     1     0     0
SMALL
No Charge or Current Charge


@<TRIPOS>ATOM
      1 CAI         -1.8070    28.2900    -7.9750 c3         1 EA0      -0.104100
      2 CAE         -0.5640    28.3970    -8.9060 c6         1 EA0       0.439400
      3 CAJ         -0.8470    29.4310   -10.0280 c3         1 EA0      -0.104100
      4 NAD         -0.3440    27.1050    -9.5480 n2         1 EA0      -0.750900
      5 CAC          0.3330    26.2470    -8.9090 ce         1 EA0       0.873200
      6 NAH          0.6840    25.0990    -9.4280 nv         1 EA0      -1.003200
      7 NAB          1.2630    26.4640    -7.9580 ne         1 EA0      -0.847000
      8 CAA          1.3710    27.6810    -7.6290 c2         1 EA0       0.829100
      9 NAG          2.1370    27.9090    -6.5720 nv         1 EA0      -1.028200
     10 NAF          0.6580    28.7330    -8.1520 nh         1 EA0      -0.555100
     11 OAK          0.5140    29.9410    -7.3360 os         1 EA0      -0.231300
     12 CAL          1.2240    31.0700    -7.9120 c3         1 EA0       0.067600
     13 CAM          2.7480    30.9810    -7.7110 c          1 EA0       0.590100
     14 OAV          3.5280    30.9470    -8.6590 o          1 EA0      -0.586100
     15 NAN          3.1410    31.0090    -6.3780 ns         1 EA0      -0.136000
     16 CAO          4.4180    30.9320    -5.7570 ca         1 EA0      -0.016000
     17 CAP          5.5990    30.5810    -6.4500 ca         1 EA0      -0.141500
     18 CAQ          6.8290    30.5170    -5.7710 ca         1 EA0      -0.077500
     19 CAR          6.8910    30.7980    -4.3970 ca         1 EA0       0.091000
     20 Cl           8.4310    30.7160    -3.5510 cl         1 EA0      -0.205000
     21 CAS          5.7240    31.1400    -3.6980 ca         1 EA0      -0.077500
     22 CAT          4.4930    31.2030    -4.3760 ca         1 EA0      -0.141500
     23 H1          -1.6410    27.5700    -7.1660 hc         1 EA0       0.050200
     24 H2          -2.0470    29.2550    -7.5150 hc         1 EA0       0.050200
     25 H3          -2.6930    27.9640    -8.5330 hc         1 EA0       0.050200
     26 H4          -1.0990    30.4140    -9.6140 hc         1 EA0       0.050200
     27 H5           0.0230    29.5540   -10.6840 hc         1 EA0       0.050200
     28 H6          -1.6920    29.1180   -10.6520 hc         1 EA0       0.050200
     29 H7           0.6130    25.1170   -10.4320 hn         1 EA0       0.481000
     30 H8           1.5870    24.8450    -9.0610 hn         1 EA0       0.481000
     31 H9           2.3230    27.0280    -6.1170 hn         1 EA0       0.487500
     32 H10          1.7060    28.5980    -5.9780 hn         1 EA0       0.487500
     33 H11          0.8950    31.9980    -7.4300 h1         1 EA0       0.088200
     34 H12          1.0290    31.1660    -8.9850 h1         1 EA0       0.088200
     35 H13          2.3730    31.0930    -5.7240 hn         1 EA0       0.174000
     36 H14          5.5830    30.3430    -7.5090 ha         1 EA0       0.134000
     37 H15          7.7350    30.2460    -6.3090 ha         1 EA0       0.128500
     38 H16          5.7720    31.3540    -2.6330 ha         1 EA0       0.128500
     39 H17          3.5950    31.4700    -3.8220 ha         1 EA0       0.134000
@<TRIPOS>BOND
     1     1     2 1   
     2     1    23 1   
     3     1    24 1   
     4     1    25 1   
     5     2     3 1   
     6     2     4 1   
     7     2    10 1   
     8     3    26 1   
     9     3    27 1   
    10     3    28 1   
    11     4     5 2   
    12     5     6 1   
    13     5     7 1   
    14     6    29 1   
    15     6    30 1   
    16     7     8 2   
    17     8     9 1   
    18     8    10 1   
    19     9    31 1   
    20     9    32 1   
    21    10    11 1   
    22    11    12 1   
    23    12    13 1   
    24    12    33 1   
    25    12    34 1   
    26    13    14 2   
    27    13    15 1   
    28    15    16 1   
    29    15    35 1   
    30    16    17 ar  
    31    16    22 ar  
    32    17    18 ar  
    33    17    36 1   
    34    18    19 ar  
    35    18    37 1   
    36    19    20 1   
    37    19    21 ar  
    38    21    22 ar  
    39    21    38 1   
    40    22    39 1   
@<TRIPOS>SUBSTRUCTURE
     1 EA0         1 TEMP              0 ****  ****    0 ROOT
