@<TRIPOS>MOLECULE
EA0
   39    40     1     0     0
SMALL
abcg2


@<TRIPOS>ATOM
      1 CAI         -1.6900    28.2510    -8.3700 c3         1 EA0      -0.104100
      2 CAE         -0.2610    28.4500    -8.8870 c6         1 EA0       0.439400
      3 CAJ         -0.2750    29.3640   -10.1040 c3         1 EA0      -0.104100
      4 NAD          0.3310    27.1970    -9.2790 n2         1 EA0      -0.750900
      5 CAC          0.8970    26.5110    -8.3490 ce         1 EA0       0.873200
      6 NAH          1.3650    25.2610    -8.6100 nv         1 EA0      -1.003200
      7 NAB          1.0380    26.8810    -7.0280 ne         1 EA0      -0.847000
      8 CAA          0.8630    28.1420    -6.7970 c2         1 EA0       0.829100
      9 NAG          1.0220    28.6370    -5.5470 nv         1 EA0      -1.028200
     10 NAF          0.6110    29.0230    -7.8220 nh         1 EA0      -0.555100
     11 OAK          0.2590    30.2850    -7.3660 os         1 EA0      -0.231300
     12 CAL          1.0440    31.3120    -7.9420 c3         1 EA0       0.067600
     13 CAM          2.5480    31.3310    -7.6950 c          1 EA0       0.590100
     14 OAV          3.2350    31.9830    -8.4620 o          1 EA0      -0.586100
     15 NAN          3.0110    30.6880    -6.6040 ns         1 EA0      -0.136000
     16 CAO          4.3260    30.6010    -6.1360 ca         1 EA0      -0.016000
     17 CAP          5.4120    31.2910    -6.6760 ca         1 EA0      -0.141500
     18 CAQ          6.6750    31.1440    -6.1190 ca         1 EA0      -0.077500
     19 CAR          6.8650    30.3140    -5.0280 ca         1 EA0       0.091000
     20 CL           8.4470    30.1440    -4.3390 cl         1 EA0      -0.205000
     21 CAS          5.7970    29.6210    -4.4800 ca         1 EA0      -0.077500
     22 CAT          4.5400    29.7660    -5.0350 ca         1 EA0      -0.141500
     23 H1          -1.7210    27.5640    -7.5220 hc         1 EA0       0.050200
     24 H2          -2.1440    29.1940    -8.0650 hc         1 EA0       0.050200
     25 H3          -2.3030    27.8260    -9.1640 hc         1 EA0       0.050200
     26 H4          -0.7780    30.3120    -9.9130 hc         1 EA0       0.050200
     27 H5           0.7350    29.5550   -10.4690 hc         1 EA0       0.050200
     28 H6          -0.8240    28.8580   -10.8970 hc         1 EA0       0.050200
     29 H7           1.4630    25.0050    -9.5780 hn         1 EA0       0.481000
     30 H8           2.0780    24.9010    -7.9980 hn         1 EA0       0.481000
     31 H9           1.1520    27.9310    -4.8380 hn         1 EA0       0.487500
     32 H10          0.4320    29.4030    -5.2560 hn         1 EA0       0.487500
     33 H11          0.6350    32.2320    -7.5170 h1         1 EA0       0.088200
     34 H12          0.9060    31.3670    -9.0220 h1         1 EA0       0.088200
     35 H13          2.3460    30.1560    -6.0550 hn         1 EA0       0.174000
     36 H14          5.2930    31.9460    -7.5220 ha         1 EA0       0.134000
     37 H15          7.5070    31.6870    -6.5420 ha         1 EA0       0.128500
     38 H16          5.9360    28.9710    -3.6270 ha         1 EA0       0.128500
     39 H17          3.7120    29.2190    -4.6030 ha         1 EA0       0.134000
@<TRIPOS>BOND
     1     1     2 1   
     2     1    23 1   
     3     1    24 1   
     4     1    25 1   
     5     2     3 1   
     6     2     4 1   
     7     2    10 1   
     8     3    26 1   
     9     3    27 1   
    10     3    28 1   
    11     4     5 2   
    12     5     6 1   
    13     5     7 1   
    14     6    29 1   
    15     6    30 1   
    16     7     8 2   
    17     8     9 1   
    18     8    10 1   
    19     9    31 1   
    20     9    32 1   
    21    10    11 1   
    22    11    12 1   
    23    12    13 1   
    24    12    33 1   
    25    12    34 1   
    26    13    14 2   
    27    13    15 1   
    28    15    16 1   
    29    15    35 1   
    30    16    17 ar  
    31    16    22 ar  
    32    17    18 ar  
    33    17    36 1   
    34    18    19 ar  
    35    18    37 1   
    36    19    20 1   
    37    19    21 ar  
    38    21    22 ar  
    39    21    38 1   
    40    22    39 1   
@<TRIPOS>SUBSTRUCTURE
     1 EA0         1 TEMP              0 ****  ****    0 ROOT
