@<TRIPOS>MOLECULE
EA1
   17    19     1     0     0
SMALL
bcc


@<TRIPOS>ATOM
      1 N7           1.5650    -0.0090    -1.6400 nc         1 EA1      -0.517100
      2 C8           0.9250     0.0030    -2.7800 cd         1 EA1       0.388700
      3 C5           0.5810    -0.0130    -0.7000 cc         1 EA1       0.001100
      4 C4          -0.6700    -0.0090    -1.2940 cd         1 EA1       0.349800
      5 N3          -1.8670    -0.0190    -0.6790 nd         1 EA1      -0.665000
      6 N9          -0.4200     0.0030    -2.6320 na         1 EA1      -0.327000
      7 C6           0.6130    -0.0100     0.7130 cc         1 EA1       0.042700
      8 N6           1.5670    -0.0080     1.6030 nd         1 EA1      -0.255600
      9 C11          0.9300     0.0080     2.8100 cd         1 EA1       0.014600
     10 N1          -0.6460    -0.0000     1.3130 na         1 EA1      -0.170100
     11 C10         -0.4230     0.0170     2.6730 cc         1 EA1      -0.213100
     12 C2          -1.8160    -0.0160     0.6080 cc         1 EA1       0.542400
     13 H8           1.3880     0.0110    -3.7530 h5         1 EA1       0.071800
     14 HN9         -1.1000     0.0110    -3.3720 hn         1 EA1       0.318700
     15 H11          1.4810     0.0090     3.7370 h4         1 EA1       0.179000
     16 H10         -1.2170     0.0250     3.3980 h4         1 EA1       0.182000
     17 H2          -2.7270    -0.0150     1.1920 h5         1 EA1       0.055100
@<TRIPOS>BOND
     1     1     2 2   
     2     1     3 1   
     3     2     6 1   
     4     2    13 1   
     5     3     4 2   
     6     3     7 1   
     7     4     5 1   
     8     4     6 1   
     9     5    12 2   
    10     6    14 1   
    11     7     8 2   
    12     7    10 1   
    13     8     9 1   
    14     9    11 2   
    15     9    15 1   
    16    10    11 1   
    17    10    12 1   
    18    11    16 1   
    19    12    17 1   
@<TRIPOS>SUBSTRUCTURE
     1 EA1         1 TEMP              0 ****  ****    0 ROOT
