@<TRIPOS>MOLECULE
EA1
   17    19     1     0     0
SMALL
No Charge or Current Charge


@<TRIPOS>ATOM
      1 N7           1.5680     0.0010    -1.6130 nc         1 EA1      -0.517100
      2 C8           0.9740    -0.0010    -2.8090 cd         1 EA1       0.388700
      3 C5           0.5350    -0.0000    -0.7230 cc         1 EA1       0.066400
      4 C4          -0.6780    -0.0030    -1.3390 cd         1 EA1       0.284500
      5 N3          -1.9080    -0.0060    -0.6820 nd         1 EA1      -0.665000
      6 N9          -0.4130    -0.0040    -2.6770 na         1 EA1      -0.377300
      7 C6           0.5810     0.0010     0.6890 cc         1 EA1      -0.008000
      8 N6           1.5640     0.0050     1.5700 nd         1 EA1      -0.255600
      9 C11          0.9390     0.0050     2.8190 cd         1 EA1      -0.035400
     10 N1          -0.6040    -0.0000     1.3380 na         1 EA1      -0.119400
     11 C10         -0.4410     0.0010     2.6970 cc         1 EA1      -0.263100
     12 C2          -1.8520    -0.0040     0.6770 cc         1 EA1       0.542400
     13 H8           1.4630    -0.0010    -3.7760 h5         1 EA1       0.071800
     14 HN9         -1.0890    -0.0070    -3.4260 hn         1 EA1       0.369000
     15 H11          1.5210     0.0070     3.7390 h4         1 EA1       0.229000
     16 H10         -1.2470     0.0000     3.4270 h4         1 EA1       0.232000
     17 H2          -2.7470    -0.0050     1.2860 h5         1 EA1       0.055100
@<TRIPOS>BOND
     1     1     2 2   
     2     1     3 1   
     3     2     6 1   
     4     2    13 1   
     5     3     4 2   
     6     3     7 1   
     7     4     5 1   
     8     4     6 1   
     9     5    12 2   
    10     6    14 1   
    11     7     8 2   
    12     7    10 1   
    13     8     9 1   
    14     9    11 2   
    15     9    15 1   
    16    10    11 1   
    17    10    12 1   
    18    11    16 1   
    19    12    17 1   
@<TRIPOS>SUBSTRUCTURE
     1 EA1         1 TEMP              0 ****  ****    0 ROOT
