@<TRIPOS>MOLECULE
EA3
   45    46     1     0     0
SMALL
No Charge or Current Charge


@<TRIPOS>ATOM
      1 O13          0.7020     2.9480     1.4410 o          1 EA3      -0.586100
      2 C12          1.0620     2.1930     0.5500 c          1 EA3       0.609700
      3 N14          1.8570     2.6410    -0.4830 ns         1 EA3      -0.492900
      4 C15          2.3880     4.0080    -0.5990 c3         1 EA3       0.100000
      5 C16          3.5740     4.2860     0.3570 c3         1 EA3       0.142600
      6 O17          4.6690     3.3930     0.0840 oh         1 EA3      -0.669000
      7 C9           0.7470     0.7110     0.5330 ca         1 EA3      -0.168600
      8 C10          1.7240    -0.1930     0.0530 ca         1 EA3       0.029000
      9 C3           1.4870    -1.5840     0.0230 ca         1 EA3      -0.334500
     10 S2           2.7680    -2.6670    -0.6150 sy         1 EA3       1.161600
     11 O4           2.1850    -3.7040    -1.4620 o          1 EA3      -0.528500
     12 O5           3.9320    -1.8820    -1.0270 o          1 EA3      -0.528500
     13 N1           3.2450    -3.4770     0.7230 n8         1 EA3      -1.009100
     14 C8          -0.4930     0.1960     0.9920 ca         1 EA3       0.000000
     15 C7          -0.7150    -1.1920     0.9740 ca         1 EA3      -0.159000
     16 C6           0.2550    -2.0810     0.4950 ca         1 EA3       0.228000
     17 Cl1         -0.1250    -3.8020     0.5600 cl         1 EA3      -0.178000
     18 S18         -1.8180     1.2670     1.5660 ss         1 EA3      -0.065000
     19 C19         -3.2820     0.6730     0.6060 c6         1 EA3       0.038300
     20 C24         -3.9780     1.8410    -0.1390 c6         1 EA3      -0.066400
     21 C23         -5.1920     1.3430    -0.9640 c6         1 EA3      -0.074400
     22 C22         -6.2010     0.5810    -0.0710 c6         1 EA3      -0.075400
     23 C21         -5.5120    -0.5840     0.6830 c6         1 EA3      -0.074400
     24 C20         -4.3000    -0.0790     1.5040 c6         1 EA3      -0.066400
     25 H1           2.1130     1.9660    -1.1920 hn         1 EA3       0.331500
     26 H2           2.7130     4.1730    -1.6340 h1         1 EA3       0.061700
     27 H3           1.5810     4.7220    -0.3880 h1         1 EA3       0.061700
     28 H4           3.8930     5.3290     0.2290 h1         1 EA3       0.032700
     29 H5           3.2360     4.1690     1.3950 h1         1 EA3       0.032700
     30 H6           5.3830     3.6100     0.7250 ho         1 EA3       0.451000
     31 H7           2.6890     0.1900    -0.2790 ha         1 EA3       0.151000
     32 H8           3.4290    -4.3980     0.3340 hn         1 EA3       0.484500
     33 H9           2.3680    -3.6020     1.2210 hn         1 EA3       0.484500
     34 H10         -1.6530    -1.5970     1.3400 ha         1 EA3       0.138000
     35 H11         -2.9020    -0.0250    -0.1530 h1         1 EA3       0.071700
     36 H12         -4.3080     2.5990     0.5850 hc         1 EA3       0.052700
     37 H13         -3.2590     2.3380    -0.8040 hc         1 EA3       0.052700
     38 H14         -5.6900     2.1960    -1.4460 hc         1 EA3       0.042700
     39 H15         -4.8440     0.6870    -1.7730 hc         1 EA3       0.042700
     40 H16         -6.6520     1.2740     0.6530 hc         1 EA3       0.043200
     41 H17         -7.0240     0.1930    -0.6860 hc         1 EA3       0.043200
     42 H18         -6.2350    -1.0760     1.3480 hc         1 EA3       0.042700
     43 H19         -5.1810    -1.3460    -0.0370 hc         1 EA3       0.042700
     44 H20         -3.8130    -0.9290     2.0000 hc         1 EA3       0.052700
     45 H21         -4.6480     0.5870     2.3050 hc         1 EA3       0.052700
@<TRIPOS>BOND
     1     1     2 2   
     2     2     3 1   
     3     2     7 1   
     4     3     4 1   
     5     3    25 1   
     6     4     5 1   
     7     4    26 1   
     8     4    27 1   
     9     5     6 1   
    10     5    28 1   
    11     5    29 1   
    12     6    30 1   
    13     7     8 ar  
    14     7    14 ar  
    15     8     9 ar  
    16     8    31 1   
    17     9    10 1   
    18     9    16 ar  
    19    10    11 2   
    20    10    12 2   
    21    10    13 1   
    22    13    32 1   
    23    13    33 1   
    24    14    15 ar  
    25    14    18 1   
    26    15    16 ar  
    27    15    34 1   
    28    16    17 1   
    29    18    19 1   
    30    19    20 1   
    31    19    24 1   
    32    19    35 1   
    33    20    21 1   
    34    20    36 1   
    35    20    37 1   
    36    21    22 1   
    37    21    38 1   
    38    21    39 1   
    39    22    23 1   
    40    22    40 1   
    41    22    41 1   
    42    23    24 1   
    43    23    42 1   
    44    23    43 1   
    45    24    44 1   
    46    24    45 1   
@<TRIPOS>SUBSTRUCTURE
     1 EA3         1 TEMP              0 ****  ****    0 ROOT
