@<TRIPOS>MOLECULE
EA3
   45    46     1     0     0
SMALL
abcg2


@<TRIPOS>ATOM
      1 O13          0.4770     2.7890     1.8100 o          1 EA3      -0.586100
      2 C12          1.0940     2.1720     0.9540 c          1 EA3       0.609700
      3 N14          2.1020     2.6880     0.2400 ns         1 EA3      -0.492900
      4 C15          2.5710     4.0480     0.3990 c3         1 EA3       0.100000
      5 C16          3.9880     4.1770    -0.1140 c3         1 EA3       0.142600
      6 O17          4.0030     3.8210    -1.4800 oh         1 EA3      -0.669000
      7 C9           0.7610     0.7460     0.6470 ca         1 EA3      -0.168600
      8 C10          1.7860    -0.1680     0.4610 ca         1 EA3       0.029000
      9 C3           1.5280    -1.5050     0.2010 ca         1 EA3      -0.334500
     10 S2           2.9040    -2.6060    -0.0520 sy         1 EA3       1.161600
     11 O4           2.6950    -3.3150    -1.2990 o          1 EA3      -0.528500
     12 O5           4.1050    -1.8130     0.1400 o          1 EA3      -0.528500
     13 N1           2.8860    -3.7240     1.1420 n8         1 EA3      -1.009100
     14 C8          -0.5770     0.3190     0.5870 ca         1 EA3       0.000000
     15 C7          -0.8320    -1.0260     0.3190 ca         1 EA3      -0.159000
     16 C6           0.2030    -1.9200     0.1230 ca         1 EA3       0.228000
     17 CL1         -0.2070    -3.5670    -0.1810 cl         1 EA3      -0.178000
     18 S18         -1.8630     1.4880     0.8140 ss         1 EA3      -0.065000
     19 C19         -3.3560     0.6680     0.1490 c6         1 EA3       0.038300
     20 C24         -4.2300     1.7680    -0.4530 c6         1 EA3      -0.066400
     21 C23         -5.5260     1.1810    -1.0050 c6         1 EA3      -0.074400
     22 C22         -6.2890     0.3920     0.0520 c6         1 EA3      -0.075400
     23 C21         -5.4080    -0.6880     0.6720 c6         1 EA3      -0.074400
     24 C20         -4.1130    -0.1010     1.2270 c6         1 EA3      -0.066400
     25 H1           2.4310     2.1870    -0.5710 hn         1 EA3       0.331500
     26 H2           1.9130     4.7480    -0.1260 h1         1 EA3       0.061700
     27 H3           2.5550     4.3170     1.4540 h1         1 EA3       0.061700
     28 H4           4.3170     5.2120     0.0430 h1         1 EA3       0.032700
     29 H5           4.6470     3.5320     0.4770 h1         1 EA3       0.032700
     30 H6           4.9150     3.6850    -1.7500 ho         1 EA3       0.451000
     31 H7           2.8120     0.1680     0.5300 ha         1 EA3       0.151000
     32 H8           2.1300    -4.3960     1.0870 hn         1 EA3       0.484500
     33 H9           2.9930    -3.3440     2.0750 hn         1 EA3       0.484500
     34 H10         -1.8420    -1.4010     0.2670 ha         1 EA3       0.138000
     35 H11         -3.0460     0.0020    -0.6610 h1         1 EA3       0.071700
     36 H12         -4.4610     2.5150     0.3140 hc         1 EA3       0.052700
     37 H13         -3.6820     2.2850    -1.2440 hc         1 EA3       0.052700
     38 H14         -6.1460     1.9860    -1.4050 hc         1 EA3       0.042700
     39 H15         -5.2890     0.5230    -1.8480 hc         1 EA3       0.042700
     40 H16         -6.6390     1.0710     0.8360 hc         1 EA3       0.043200
     41 H17         -7.1810    -0.0590    -0.3890 hc         1 EA3       0.043200
     42 H18         -5.9450    -1.2060     1.4690 hc         1 EA3       0.042700
     43 H19         -5.1720    -1.4440    -0.0850 hc         1 EA3       0.042700
     44 H20         -3.4930    -0.8930     1.6530 hc         1 EA3       0.052700
     45 H21         -4.3430     0.5840     2.0490 hc         1 EA3       0.052700
@<TRIPOS>BOND
     1     1     2 2   
     2     2     3 1   
     3     2     7 1   
     4     3     4 1   
     5     3    25 1   
     6     4     5 1   
     7     4    26 1   
     8     4    27 1   
     9     5     6 1   
    10     5    28 1   
    11     5    29 1   
    12     6    30 1   
    13     7     8 ar  
    14     7    14 ar  
    15     8     9 ar  
    16     8    31 1   
    17     9    10 1   
    18     9    16 ar  
    19    10    11 2   
    20    10    12 2   
    21    10    13 1   
    22    13    32 1   
    23    13    33 1   
    24    14    15 ar  
    25    14    18 1   
    26    15    16 ar  
    27    15    34 1   
    28    16    17 1   
    29    18    19 1   
    30    19    20 1   
    31    19    24 1   
    32    19    35 1   
    33    20    21 1   
    34    20    36 1   
    35    20    37 1   
    36    21    22 1   
    37    21    38 1   
    38    21    39 1   
    39    22    23 1   
    40    22    40 1   
    41    22    41 1   
    42    23    24 1   
    43    23    42 1   
    44    23    43 1   
    45    24    44 1   
    46    24    45 1   
@<TRIPOS>SUBSTRUCTURE
     1 EA3         1 TEMP              0 ****  ****    0 ROOT
