@<TRIPOS>MOLECULE
EA4
   35    35     1     0     0
SMALL
bcc


@<TRIPOS>ATOM
      1 C           -3.8730    -0.5620    -0.0600 c          1 EA4       0.633100
      2 N           -1.5920     0.2160    -0.2020 ns         1 EA4      -0.590900
      3 O           -3.5280    -1.6830    -0.3380 o          1 EA4      -0.547000
      4 CA          -2.9330     0.6040     0.1260 c3         1 EA4       0.056000
      5 CAA         -7.4760    -0.5060     0.2990 c3         1 EA4      -0.098100
      6 OAC         -0.7640     2.2820     0.2080 o          1 EA4      -0.648100
      7 CAE          5.0930    -0.3910    -1.1270 ca         1 EA4      -0.200500
      8 CAF          4.5650    -0.6950     1.1940 ca         1 EA4      -0.200500
      9 CAG          3.9440     0.3710    -1.2780 ca         1 EA4      -0.071000
     10 CAH          3.4240     0.0690     1.0270 ca         1 EA4      -0.071000
     11 CAI         -6.1540    -1.1910     0.0570 c3         1 EA4       0.145400
     12 CAK          1.8410     1.4370    -0.3800 c3         1 EA4       0.166300
     13 NAM          0.6670     0.5890    -0.2970 ns         1 EA4      -0.579900
     14 OAN         -5.1220    -0.1910     0.1430 os         1 EA4      -0.421900
     15 CAO         -0.5710     1.1050    -0.0820 c          1 EA4       0.781100
     16 CAQ          5.4250    -0.9430     0.1140 ca         1 EA4       0.157600
     17 CAR          3.0910     0.6200    -0.2090 ca         1 EA4      -0.160300
     18 HN          -1.3980    -0.7710    -0.2720 hn         1 EA4       0.330500
     19 HA          -3.2740     1.4310    -0.5030 h1         1 EA4       0.080700
     20 HAA         -3.0310     0.9460     1.1630 h1         1 EA4       0.080700
     21 HAAA        -8.2750    -1.2450     0.2460 hc         1 EA4       0.048700
     22 HAAB        -7.5130    -0.0440     1.2860 hc         1 EA4       0.048700
     23 HAAC        -7.6770     0.2580    -0.4520 hc         1 EA4       0.048700
     24 HNAB         7.2700    -1.6020    -0.4100 hn         1 EA4       0.392300
     25 HNAA         6.9020    -1.8110     1.2000 hn         1 EA4       0.392300
     26 HAE          5.7390    -0.5630    -1.9800 ha         1 EA4       0.131000
     27 HAF          4.8020    -1.1030     2.1700 ha         1 EA4       0.131000
     28 HAG          3.7140     0.7850    -2.2530 ha         1 EA4       0.132000
     29 HAH          2.7820     0.2450     1.8830 ha         1 EA4       0.132000
     30 HAI         -5.9720    -1.9650     0.8050 h1         1 EA4       0.050200
     31 HAIA        -6.1300    -1.6600    -0.9290 h1         1 EA4       0.050200
     32 HAK          1.8800     1.9740    -1.3340 h1         1 EA4       0.055200
     33 HAKA         1.7740     2.1910     0.4040 h1         1 EA4       0.055200
     34 HNAM         0.7390    -0.3170    -0.7330 hn         1 EA4       0.308500
     35 NAB          6.5350    -1.7480     0.2640 nv         1 EA4      -0.819200
@<TRIPOS>BOND
     1     1     3 2   
     2     1     4 1   
     3     1    14 1   
     4     2     4 1   
     5     2    15 1   
     6     2    18 1   
     7     4    19 1   
     8     4    20 1   
     9     5    11 1   
    10     5    21 1   
    11     5    22 1   
    12     5    23 1   
    13     6    15 2   
    14     7     9 ar  
    15     7    16 ar  
    16     7    26 1   
    17     8    10 ar  
    18     8    16 ar  
    19     8    27 1   
    20     9    17 ar  
    21     9    28 1   
    22    10    17 ar  
    23    10    29 1   
    24    11    14 1   
    25    11    30 1   
    26    11    31 1   
    27    12    13 1   
    28    12    17 1   
    29    12    32 1   
    30    12    33 1   
    31    13    15 1   
    32    13    34 1   
    33    16    35 1   
    34    24    35 1   
    35    25    35 1   
@<TRIPOS>SUBSTRUCTURE
     1 EA4         1 TEMP              0 ****  ****    0 ROOT
