@<TRIPOS>MOLECULE
EA4
   35    35     1     0     0
SMALL
No Charge or Current Charge


@<TRIPOS>ATOM
      1 C           -3.8720    -0.5430     0.0120 c          1 EA4       0.584100
      2 N           -1.5420     0.4050    -0.0030 ns         1 EA4      -0.523900
      3 O           -3.4350    -1.6890     0.0150 o          1 EA4      -0.498000
      4 CA          -2.9890     0.7240     0.0020 c3         1 EA4       0.056000
      5 CAA         -7.5610    -0.6800     0.0290 c3         1 EA4      -0.098100
      6 OAC         -0.7650     2.5440    -0.0180 o          1 EA4      -0.648100
      7 CAE          4.8350    -0.6060    -1.2400 ca         1 EA4      -0.182500
      8 CAF          4.8460    -0.5930     1.1860 ca         1 EA4      -0.182500
      9 CAG          3.7100     0.2370    -1.2430 ca         1 EA4      -0.053000
     10 CAH          3.7200     0.2500     1.1900 ca         1 EA4      -0.053000
     11 CAI         -6.1570    -1.3040     0.0260 c3         1 EA4       0.168600
     12 CAK          1.9290     1.5790    -0.0260 c3         1 EA4       0.166300
     13 NAM          0.6990     0.7980    -0.0160 ns         1 EA4      -0.512900
     14 OAN         -5.2060    -0.2260     0.0160 os         1 EA4      -0.445100
     15 CAO         -0.5510     1.3440    -0.0130 c          1 EA4       0.647100
     16 CAQ          5.4030    -1.0200    -0.0270 ca         1 EA4       0.296000
     17 CAR          3.1480     0.6700    -0.0260 ca         1 EA4      -0.160300
     18 HN          -1.2640    -0.5690     0.0000 hn         1 EA4       0.330500
     19 HA          -3.2440     1.3090    -0.8900 h1         1 EA4       0.080700
     20 HAA         -3.2360     1.3180     0.8910 h1         1 EA4       0.080700
     21 HAAA        -8.3260    -1.4650     0.0370 hc         1 EA4       0.048700
     22 HAAB        -7.7030    -0.0530     0.9180 hc         1 EA4       0.048700
     23 HAAC        -7.7110    -0.0620    -0.8640 hc         1 EA4       0.048700
     24 HNAB         6.9880    -2.0280    -0.9000 hn         1 EA4       0.447500
     25 HNAA         6.9960    -2.0210     0.8410 hn         1 EA4       0.447500
     26 HAE          5.2620    -0.9350    -2.1840 ha         1 EA4       0.113000
     27 HAF          5.2800    -0.9130     2.1290 ha         1 EA4       0.113000
     28 HAG          3.2740     0.5520    -2.1900 ha         1 EA4       0.114000
     29 HAH          3.2930     0.5740     2.1370 ha         1 EA4       0.114000
     30 HAI         -6.0320    -1.9300     0.9200 h1         1 EA4       0.050200
     31 HAIA        -6.0400    -1.9380    -0.8630 h1         1 EA4       0.050200
     32 HAK          1.9400     2.2200    -0.9180 h1         1 EA4       0.055200
     33 HAKA         1.9480     2.2290     0.8600 h1         1 EA4       0.055200
     34 HNAM         0.7730    -0.2100    -0.0110 hn         1 EA4       0.308500
     35 NAB          6.4980    -1.8380    -0.0280 nv         1 EA4      -1.068000
@<TRIPOS>BOND
     1     1     3 2   
     2     1     4 1   
     3     1    14 1   
     4     2     4 1   
     5     2    15 1   
     6     2    18 1   
     7     4    19 1   
     8     4    20 1   
     9     5    11 1   
    10     5    21 1   
    11     5    22 1   
    12     5    23 1   
    13     6    15 2   
    14     7     9 ar  
    15     7    16 ar  
    16     7    26 1   
    17     8    10 ar  
    18     8    16 ar  
    19     8    27 1   
    20     9    17 ar  
    21     9    28 1   
    22    10    17 ar  
    23    10    29 1   
    24    11    14 1   
    25    11    30 1   
    26    11    31 1   
    27    12    13 1   
    28    12    17 1   
    29    12    32 1   
    30    12    33 1   
    31    13    15 1   
    32    13    34 1   
    33    16    35 1   
    34    24    35 1   
    35    25    35 1   
@<TRIPOS>SUBSTRUCTURE
     1 EA4         1 TEMP              0 ****  ****    0 ROOT
