@<TRIPOS>MOLECULE
EA6
   42    43     1     0     0
SMALL
abcg2


@<TRIPOS>ATOM
      1 C4           1.1540     4.8050    55.7100 ce         1 EA6       0.873200
      2 C14         -4.4020     6.6470    60.5780 ca         1 EA6       0.100000
      3 C5           1.6930     4.1880    57.8120 c2         1 EA6       0.867100
      4 C6          -0.5870     3.6790    60.0570 c3         1 EA6       0.147600
      5 C11         -3.5760     8.8190    62.0790 ca         1 EA6      -0.110000
      6 C7          -0.7420     3.9050    61.5460 c3         1 EA6      -0.080400
      7 C8          -1.3210     5.2540    61.9210 c3         1 EA6       0.167600
      8 C9          -3.2440     6.5350    61.3550 ca         1 EA6       0.139100
      9 C10         -2.8440     7.6390    62.1020 ca         1 EA6      -0.169000
     10 C12         -4.7120     8.8880    61.3020 ca         1 EA6       0.142000
     11 C13         -5.1430     7.8140    60.5470 ca         1 EA6      -0.109000
     12 N1           0.0820     5.4490    56.0180 n2         1 EA6      -0.766900
     13 N2           1.4910     4.6600    54.3940 nv         1 EA6      -1.002200
     14 N3           2.0760     4.2580    56.5670 ne         1 EA6      -0.882000
     15 C2          -0.1450     5.7130    57.4130 c6         1 EA6       0.457400
     16 N4           2.4840     3.6170    58.7260 nv         1 EA6      -1.040200
     17 N5           0.4480     4.6040    58.1950 nh         1 EA6      -0.569100
     18 O1           0.2750     4.7050    59.5580 os         1 EA6      -0.238300
     19 O2          -2.6020     5.3610    61.3170 os         1 EA6      -0.334100
     20 F1          -5.4270    10.0240    61.2710 f          1 EA6      -0.174000
     21 H1          -1.5530     3.7140    59.5480 h1         1 EA6       0.055700
     22 H2          -0.1460     2.6940    59.8730 h1         1 EA6       0.055700
     23 H3          -3.2570     9.6700    62.6660 ha         1 EA6       0.135000
     24 H4          -1.3740     3.1070    61.9420 hc         1 EA6       0.061200
     25 H5           0.2250     3.8050    62.0450 hc         1 EA6       0.061200
     26 H6          -0.6730     6.0670    61.5790 h1         1 EA6       0.043200
     27 H7          -1.4040     5.3310    63.0100 h1         1 EA6       0.043200
     28 H8          -1.9580     7.5940    62.7200 ha         1 EA6       0.124000
     29 H9          -6.0370     7.8840    59.9400 ha         1 EA6       0.149000
     30 H10          0.7620     4.8500    53.7270 hn         1 EA6       0.472500
     31 H11          2.0760     3.8740    54.1630 hn         1 EA6       0.472500
     32 H12          0.3110     7.2750    58.8760 hc         1 EA6       0.047367
     33 H13          1.5540     7.0680    57.6320 hc         1 EA6       0.047367
     34 H14          0.0250     7.8550    57.2370 hc         1 EA6       0.047367
     35 H15         -1.8990     5.9720    58.6910 hc         1 EA6       0.047367
     36 H16         -2.0860     6.5200    57.0300 hc         1 EA6       0.047367
     37 H17         -2.1060     4.7920    57.3860 hc         1 EA6       0.047367
     38 H18          3.4090     3.3530    58.4330 hn         1 EA6       0.501500
     39 H19          2.3360     3.7680    59.7090 hn         1 EA6       0.501500
     40 C3           0.4790     7.0530    57.8210 c3         1 EA6      -0.100100
     41 C1          -1.6480     5.7440    57.6570 c3         1 EA6      -0.100100
     42 CL1         -4.9050     5.2930    59.6340 cl         1 EA6      -0.174000
@<TRIPOS>BOND
     1     1    12 2   
     2     1    13 1   
     3     1    14 1   
     4     2     8 ar  
     5     2    11 ar  
     6     2    42 1   
     7     3    14 2   
     8     3    16 1   
     9     3    17 1   
    10     4     6 1   
    11     4    18 1   
    12     4    21 1   
    13     4    22 1   
    14     5     9 ar  
    15     5    10 ar  
    16     5    23 1   
    17     6     7 1   
    18     6    24 1   
    19     6    25 1   
    20     7    19 1   
    21     7    26 1   
    22     7    27 1   
    23     8     9 ar  
    24     8    19 1   
    25     9    28 1   
    26    10    11 ar  
    27    10    20 1   
    28    11    29 1   
    29    12    15 1   
    30    13    30 1   
    31    13    31 1   
    32    15    17 1   
    33    15    40 1   
    34    15    41 1   
    35    16    38 1   
    36    16    39 1   
    37    17    18 1   
    38    32    40 1   
    39    33    40 1   
    40    34    40 1   
    41    35    41 1   
    42    36    41 1   
    43    37    41 1   
@<TRIPOS>SUBSTRUCTURE
     1 EA6         1 TEMP              0 ****  ****    0 ROOT
