@<TRIPOS>MOLECULE
EA6
   42    43     1     0     0
SMALL
No Charge or Current Charge


@<TRIPOS>ATOM
      1 C4           1.3410     5.2270    55.7910 ce         1 EA6       0.873200
      2 C14         -4.4190     6.6510    60.5890 ca         1 EA6       0.100000
      3 C5           1.5660     3.9880    57.5670 c2         1 EA6       0.867100
      4 C6          -0.5000     3.6070    60.1640 c3         1 EA6       0.147600
      5 C11         -3.5160     8.9620    61.9110 ca         1 EA6      -0.110000
      6 C7          -0.6440     3.9160    61.6680 c3         1 EA6      -0.080400
      7 C8          -1.1980     5.3250    61.9630 c3         1 EA6       0.167600
      8 C9          -3.2060     6.6130    61.3130 ca         1 EA6       0.139100
      9 C10         -2.7570     7.7790    61.9760 ca         1 EA6      -0.169000
     10 C12         -4.7190     8.9860    61.1870 ca         1 EA6       0.142000
     11 C13         -5.1730     7.8360    60.5270 ca         1 EA6      -0.109000
     12 N1           0.1720     5.6210    56.0640 n2         1 EA6      -0.766900
     13 N2           1.7350     5.0500    54.5600 nv         1 EA6      -1.002200
     14 N3           2.0580     4.2960    56.4440 ne         1 EA6      -0.882000
     15 C2          -0.2060     5.6490    57.4740 c6         1 EA6       0.457400
     16 N4           2.2940     3.1610    58.3000 nv         1 EA6      -1.040200
     17 N5           0.4280     4.4940    58.1350 nh         1 EA6      -0.569100
     18 O1           0.3870     4.5890    59.5920 os         1 EA6      -0.238300
     19 O2          -2.4900     5.4310    61.3420 os         1 EA6      -0.334100
     20 F1          -5.4440    10.1250    61.1270 f          1 EA6      -0.174000
     21 H1          -1.4890     3.6440    59.6880 h1         1 EA6       0.055700
     22 H2          -0.0990     2.5940    60.0300 h1         1 EA6       0.055700
     23 H3          -3.1750     9.8610    62.4200 ha         1 EA6       0.135000
     24 H4          -1.3040     3.1690    62.1250 hc         1 EA6       0.061200
     25 H5           0.3340     3.8090    62.1520 hc         1 EA6       0.061200
     26 H6          -0.5090     6.0800    61.5600 h1         1 EA6       0.043200
     27 H7          -1.2760     5.4700    63.0480 h1         1 EA6       0.043200
     28 H8          -1.8310     7.7860    62.5440 ha         1 EA6       0.124000
     29 H9          -6.1040     7.8620    59.9680 ha         1 EA6       0.149000
     30 H10          0.9460     5.0210    53.9360 hn         1 EA6       0.472500
     31 H11          2.3240     4.2340    54.5460 hn         1 EA6       0.472500
     32 H12         -0.0820     7.1150    59.1230 hc         1 EA6       0.047367
     33 H13          1.3470     7.0980    58.0790 hc         1 EA6       0.047367
     34 H14         -0.1540     7.8530    57.5220 hc         1 EA6       0.047367
     35 H15         -2.1040     5.6300    58.5840 hc         1 EA6       0.047367
     36 H16         -2.2330     6.3520    56.9800 hc         1 EA6       0.047367
     37 H17         -2.1100     4.5940    57.1500 hc         1 EA6       0.047367
     38 H18          3.2500     3.2150    57.9880 hn         1 EA6       0.501500
     39 H19          2.1550     3.3800    59.2740 hn         1 EA6       0.501500
     40 C3           0.2550     7.0060    58.0850 c3         1 EA6      -0.100100
     41 C1          -1.7520     5.5490    57.5510 c3         1 EA6      -0.100100
     42 Cl1         -5.0090     5.2190    59.7430 cl         1 EA6      -0.174000
@<TRIPOS>BOND
     1     1    12 2   
     2     1    13 1   
     3     1    14 1   
     4     2     8 ar  
     5     2    11 ar  
     6     2    42 1   
     7     3    14 2   
     8     3    16 1   
     9     3    17 1   
    10     4     6 1   
    11     4    18 1   
    12     4    21 1   
    13     4    22 1   
    14     5     9 ar  
    15     5    10 ar  
    16     5    23 1   
    17     6     7 1   
    18     6    24 1   
    19     6    25 1   
    20     7    19 1   
    21     7    26 1   
    22     7    27 1   
    23     8     9 ar  
    24     8    19 1   
    25     9    28 1   
    26    10    11 ar  
    27    10    20 1   
    28    11    29 1   
    29    12    15 1   
    30    13    30 1   
    31    13    31 1   
    32    15    17 1   
    33    15    40 1   
    34    15    41 1   
    35    16    38 1   
    36    16    39 1   
    37    17    18 1   
    38    32    40 1   
    39    33    40 1   
    40    34    40 1   
    41    35    41 1   
    42    36    41 1   
    43    37    41 1   
@<TRIPOS>SUBSTRUCTURE
     1 EA6         1 TEMP              0 ****  ****    0 ROOT
