@<TRIPOS>MOLECULE
EA7
   41    43     1     0     0
SMALL
abcg2


@<TRIPOS>ATOM
      1 C4          -4.3050    -1.2070     0.4680 c6         1 EA7       0.154500
      2 C14         -3.6580     2.3130    -0.8120 c3         1 EA7       0.186100
      3 C5           0.2490    -0.6160    -0.0200 ca         1 EA7       0.403900
      4 C6          -1.0600     1.2180    -0.0640 ca         1 EA7       0.133900
      5 C11          4.4020     0.9980     0.1110 ca         1 EA7       0.161500
      6 C7           2.7520    -0.7280     0.0260 ca         1 EA7       0.343000
      7 C8           3.7950    -1.6620    -0.0170 ca         1 EA7      -0.182000
      8 C9           5.1010    -1.2350     0.0060 ca         1 EA7       0.161500
      9 C10          5.4610     0.1060     0.0690 ca         1 EA7       0.032100
     10 C12          3.0720     0.6270     0.0920 ca         1 EA7      -0.182000
     11 C13         -5.5190    -2.0910     0.2440 c3         1 EA7      -0.092100
     12 N1          -3.0870    -1.7580    -0.1320 nh         1 EA7      -0.758300
     13 N2          -3.4810     0.9480    -0.3480 n          1 EA7      -0.193400
     14 C3          -4.5770     0.2010    -0.0580 c          1 EA7       0.565000
     15 N3          -0.7840    -1.4640    -0.0540 nb         1 EA7      -0.299000
     16 C1          -1.9980    -0.9530    -0.1040 ca         1 EA7       0.386900
     17 C2          -2.1910     0.4470    -0.1480 ca         1 EA7      -0.226000
     18 N4           0.1710     0.7010     0.0060 nb         1 EA7      -0.239000
     19 N5           1.4640    -1.2390     0.0030 nu         1 EA7      -0.926900
     20 O1          -5.7040     0.6390    -0.1720 o          1 EA7      -0.529000
     21 C15         -3.6640     3.2790     0.2830 c1         1 EA7      -0.182100
     22 C16         -3.6660     4.0670     1.1900 c1         1 EA7      -0.205000
     23 C17         -2.8860    -3.1930    -0.0760 c3         1 EA7       0.203100
     24 O2           6.7650     0.4420     0.0850 oh         1 EA7      -0.509100
     25 F2           6.0860    -2.1420    -0.0360 f          1 EA7      -0.170500
     26 H1          -4.1580    -1.1040     1.5550 h1         1 EA7       0.062700
     27 H2          -2.8610     2.5480    -1.5200 h1         1 EA7       0.081700
     28 H3          -4.5940     2.3760    -1.3650 h1         1 EA7       0.081700
     29 H4          -1.1170     2.3010    -0.0630 h4         1 EA7       0.035100
     30 H5           3.5910    -2.7240    -0.0700 ha         1 EA7       0.154500
     31 H6           2.3070     1.3850     0.1260 ha         1 EA7       0.154500
     32 H7          -5.4150    -3.0410     0.7630 hc         1 EA7       0.056700
     33 H8          -6.4020    -1.6020     0.6460 hc         1 EA7       0.056700
     34 H9          -5.6850    -2.2850    -0.8160 hc         1 EA7       0.056700
     35 H10          1.3960    -2.2450    -0.0170 hn         1 EA7       0.513000
     36 H11         -3.6720     4.7650     1.9950 ha         1 EA7       0.258000
     37 H12         -3.7380    -3.7040    -0.5150 h1         1 EA7       0.049367
     38 H13         -2.0050    -3.4580    -0.6500 h1         1 EA7       0.049367
     39 H14         -2.7500    -3.5520     0.9480 h1         1 EA7       0.049367
     40 H15          6.8720     1.3990     0.1190 ho         1 EA7       0.477000
     41 F1           4.7030     2.3080     0.1770 f          1 EA7      -0.170500
@<TRIPOS>BOND
     1     1    11 1   
     2     1    12 1   
     3     1    14 1   
     4     1    26 1   
     5     2    13 1   
     6     2    21 1   
     7     2    27 1   
     8     2    28 1   
     9     3    15 ar  
    10     3    18 ar  
    11     3    19 1   
    12     4    17 ar  
    13     4    18 ar  
    14     4    29 1   
    15     5     9 ar  
    16     5    10 ar  
    17     5    41 1   
    18     6     7 ar  
    19     6    10 ar  
    20     6    19 1   
    21     7     8 ar  
    22     7    30 1   
    23     8     9 ar  
    24     8    25 1   
    25     9    24 1   
    26    10    31 1   
    27    11    32 1   
    28    11    33 1   
    29    11    34 1   
    30    12    16 1   
    31    12    23 1   
    32    13    14 1   
    33    13    17 1   
    34    14    20 2   
    35    15    16 ar  
    36    16    17 ar  
    37    19    35 1   
    38    21    22 3   
    39    22    36 1   
    40    23    37 1   
    41    23    38 1   
    42    23    39 1   
    43    24    40 1   
@<TRIPOS>SUBSTRUCTURE
     1 EA7         1 TEMP              0 ****  ****    0 ROOT
