@<TRIPOS>MOLECULE
EA7
   41    43     1     0     0
SMALL
No Charge or Current Charge


@<TRIPOS>ATOM
      1 C4          -4.3720    -1.2010     0.5570 c6         1 EA7       0.154500
      2 C14         -3.7390     2.3580    -0.9310 c3         1 EA7       0.186100
      3 C5           0.2790    -0.6260    -0.1300 ca         1 EA7       0.403900
      4 C6          -1.0290     1.2280    -0.4030 ca         1 EA7       0.133900
      5 C11          4.5000     0.9210     0.6050 ca         1 EA7       0.161500
      6 C7           2.8410    -0.7540    -0.0060 ca         1 EA7       0.343000
      7 C8           3.8680    -1.5760    -0.4920 ca         1 EA7      -0.182000
      8 C9           5.2040    -1.1480    -0.4440 ca         1 EA7       0.161500
      9 C10          5.5370     0.1090     0.1030 ca         1 EA7       0.032100
     10 C12          3.1650     0.4930     0.5550 ca         1 EA7      -0.182000
     11 C13         -5.6150    -2.1300     0.3750 c3         1 EA7      -0.092100
     12 N1          -3.0870    -1.8290     0.0740 nh         1 EA7      -0.758300
     13 N2          -3.5260     0.9970    -0.3760 n          1 EA7      -0.193400
     14 C3          -4.6650     0.2270    -0.0270 c          1 EA7       0.565000
     15 N3          -0.7480    -1.4770    -0.0290 nb         1 EA7      -0.299000
     16 C1          -1.9860    -0.9550    -0.1220 ca         1 EA7       0.386900
     17 C2          -2.1900     0.4230    -0.3750 ca         1 EA7      -0.226000
     18 N4           0.2040     0.7020    -0.3080 nb         1 EA7      -0.239000
     19 N5           1.5280    -1.2260    -0.0640 nu         1 EA7      -0.926900
     20 O1          -5.8090     0.6540    -0.1690 o          1 EA7      -0.529000
     21 C15         -3.7040     3.4090     0.0990 c1         1 EA7      -0.182100
     22 C16         -3.6590     4.2540     0.9640 c1         1 EA7      -0.205000
     23 C17         -2.9130    -3.3070     0.1880 c3         1 EA7       0.203100
     24 O2           6.8470     0.5310     0.1530 oh         1 EA7      -0.509100
     25 F2           6.1720    -1.9600    -0.9290 f          1 EA7      -0.170500
     26 H1          -4.2670    -1.0260     1.6370 h1         1 EA7       0.062700
     27 H2          -2.9710     2.5680    -1.6850 h1         1 EA7       0.081700
     28 H3          -4.7020     2.4070    -1.4560 h1         1 EA7       0.081700
     29 H4          -1.0740     2.3100    -0.5120 h4         1 EA7       0.035100
     30 H5           3.6360    -2.5460    -0.9190 ha         1 EA7       0.154500
     31 H6           2.3940     1.1300     0.9720 ha         1 EA7       0.154500
     32 H7          -5.5050    -3.0720     0.9240 hc         1 EA7       0.056700
     33 H8          -6.5270    -1.6580     0.7610 hc         1 EA7       0.056700
     34 H9          -5.7840    -2.3660    -0.6820 hc         1 EA7       0.056700
     35 H10          1.4620    -2.2390    -0.1480 hn         1 EA7       0.513000
     36 H11         -3.6160     4.9940     1.7400 ha         1 EA7       0.258000
     37 H12         -3.7090    -3.8370    -0.3510 h1         1 EA7       0.049367
     38 H13         -1.9680    -3.6460    -0.2560 h1         1 EA7       0.049367
     39 H14         -2.9300    -3.6170     1.2410 h1         1 EA7       0.049367
     40 H15          6.8780     1.4220     0.5680 ho         1 EA7       0.477000
     41 F1           4.7870     2.1260     1.1490 f          1 EA7      -0.170500
@<TRIPOS>BOND
     1     1    11 1   
     2     1    12 1   
     3     1    14 1   
     4     1    26 1   
     5     2    13 1   
     6     2    21 1   
     7     2    27 1   
     8     2    28 1   
     9     3    15 ar  
    10     3    18 ar  
    11     3    19 1   
    12     4    17 ar  
    13     4    18 ar  
    14     4    29 1   
    15     5     9 ar  
    16     5    10 ar  
    17     5    41 1   
    18     6     7 ar  
    19     6    10 ar  
    20     6    19 1   
    21     7     8 ar  
    22     7    30 1   
    23     8     9 ar  
    24     8    25 1   
    25     9    24 1   
    26    10    31 1   
    27    11    32 1   
    28    11    33 1   
    29    11    34 1   
    30    12    16 1   
    31    12    23 1   
    32    13    14 1   
    33    13    17 1   
    34    14    20 2   
    35    15    16 ar  
    36    16    17 ar  
    37    19    35 1   
    38    21    22 3   
    39    22    36 1   
    40    23    37 1   
    41    23    38 1   
    42    23    39 1   
    43    24    40 1   
@<TRIPOS>SUBSTRUCTURE
     1 EA7         1 TEMP              0 ****  ****    0 ROOT
