@<TRIPOS>MOLECULE
EA9
   61    65     1     0     0
SMALL
abcg2


@<TRIPOS>ATOM
      1 C1          -7.9540     7.2060    -2.2730 c3         1 EA9      -0.088100
      2 C2          -9.3280     6.7280    -1.8230 c3         1 EA9      -0.113400
      3 C3          -9.9060     7.6610    -0.7740 c3         1 EA9       0.161600
      4 O4         -11.1520     7.2100    -0.2390 os         1 EA9      -0.350100
      5 C5         -12.2300     7.3190    -1.0580 ca         1 EA9       0.082100
      6 C6         -12.7080     6.2110    -1.7400 ca         1 EA9      -0.098000
      7 C7         -13.8340     6.2960    -2.5470 ca         1 EA9      -0.106000
      8 C8         -14.4910     7.5080    -2.6790 ca         1 EA9      -0.072300
      9 C9         -15.6840     7.6570    -3.5900 c5         1 EA9       0.247300
     10 C10        -16.7230     6.5920    -3.4760 cc         1 EA9      -0.200300
     11 C11        -17.5810     5.9040    -2.5970 cc         1 EA9       0.352500
     12 C12        -17.7460     6.1310    -1.1590 ca         1 EA9      -0.156500
     13 C13        -17.4890     7.4070    -0.6530 ca         1 EA9      -0.054000
     14 C14        -17.5820     7.6970     0.6970 ca         1 EA9      -0.152000
     15 C15        -17.9480     6.6910     1.5800 ca         1 EA9      -0.055000
     16 C16        -18.2070     5.4150     1.1090 ca         1 EA9      -0.215000
     17 C17        -18.1060     5.1220    -0.2510 ca         1 EA9       0.170100
     18 O18        -18.3280     3.8810    -0.7150 oh         1 EA9      -0.512100
     19 N19        -18.2500     4.9780    -3.2850 nd         1 EA9      -0.476800
     20 N20        -17.8370     5.0560    -4.5430 na         1 EA9       0.053800
     21 C21        -16.9150     6.0150    -4.6910 cd         1 EA9      -0.239600
     22 C22        -16.0190     6.5880    -5.7040 c          1 EA9       0.615600
     23 O23        -15.9020     6.3070    -6.8800 o          1 EA9      -0.534000
     24 N24        -15.3180     7.5310    -5.0080 n          1 EA9      -0.418800
     25 C25        -14.2510     8.3150    -5.5750 c3         1 EA9       0.159300
     26 C26        -14.4670     9.7930    -5.3990 ca         1 EA9      -0.158300
     27 C27        -15.6490    10.4160    -5.7830 ca         1 EA9      -0.058000
     28 C28        -15.7820    11.7810    -5.5920 ca         1 EA9      -0.165000
     29 C29        -14.7260    12.4770    -5.0190 ca         1 EA9       0.334900
     30 N30        -13.5920    11.8970    -4.6460 nb         1 EA9      -0.670000
     31 C31        -13.4770    10.5880    -4.8330 ca         1 EA9       0.340900
     32 C32        -14.0240     8.6260    -1.9940 ca         1 EA9      -0.182000
     33 C33        -12.8970     8.5490    -1.1830 ca         1 EA9       0.117100
     34 O34        -12.3880     9.5830    -0.4930 os         1 EA9      -0.328100
     35 C35        -13.0180    10.8440    -0.6060 c3         1 EA9       0.140900
     36 H1          -7.5380     6.5430    -3.0310 hc         1 EA9       0.034367
     37 H2          -8.0020     8.2090    -2.7020 hc         1 EA9       0.034367
     38 H3          -7.2510     7.2370    -1.4390 hc         1 EA9       0.034367
     39 H4          -9.9960     6.6740    -2.6850 hc         1 EA9       0.047700
     40 H5          -9.2560     5.7180    -1.4120 hc         1 EA9       0.047700
     41 H6          -9.2310     7.7220     0.0820 h1         1 EA9       0.053200
     42 H7         -10.0040     8.6710    -1.1850 h1         1 EA9       0.053200
     43 H8         -12.1910     5.2670    -1.6240 ha         1 EA9       0.128000
     44 H9         -14.1880     5.4160    -3.0710 ha         1 EA9       0.127000
     45 H10        -16.1240     8.6480    -3.4280 h1         1 EA9       0.072700
     46 H11        -17.2210     8.2000    -1.3400 ha         1 EA9       0.113000
     47 H12        -17.3780     8.6980     1.0540 ha         1 EA9       0.117000
     48 H13        -18.0320     6.8940     2.6400 ha         1 EA9       0.114000
     49 H14        -18.4860     4.6290     1.8030 ha         1 EA9       0.113000
     50 H15        -18.5220     3.2840     0.0170 ho         1 EA9       0.462000
     51 H17        -14.1860     8.0660    -6.6350 h1         1 EA9       0.069700
     52 H18        -13.2960     8.0300    -5.1230 h1         1 EA9       0.069700
     53 H19        -16.4560     9.8430    -6.2220 ha         1 EA9       0.128000
     54 H20        -16.6850    12.3010    -5.8780 ha         1 EA9       0.126000
     55 H21        -14.8020    13.5460    -4.8540 h4         1 EA9       0.020100
     56 H22        -12.5460    10.1340    -4.5090 h4         1 EA9       0.021100
     57 H23        -14.5560     9.5630    -2.1060 ha         1 EA9       0.119000
     58 H24        -12.4470    11.5300     0.0150 h1         1 EA9       0.044367
     59 H25        -13.0130    11.2130    -1.6350 h1         1 EA9       0.044367
     60 H26        -14.0500    10.8180    -0.2450 h1         1 EA9       0.044367
     61 H16        -18.2190     4.4310    -5.2360 hn         1 EA9       0.390000
@<TRIPOS>BOND
     1     1     2 1   
     2     1    36 1   
     3     1    37 1   
     4     1    38 1   
     5     2     3 1   
     6     2    39 1   
     7     2    40 1   
     8     3     4 1   
     9     3    41 1   
    10     3    42 1   
    11     4     5 1   
    12     5     6 ar  
    13     5    33 ar  
    14     6     7 ar  
    15     6    43 1   
    16     7     8 ar  
    17     7    44 1   
    18     8     9 1   
    19     8    32 ar  
    20     9    10 1   
    21     9    24 1   
    22     9    45 1   
    23    10    11 1   
    24    10    21 2   
    25    11    12 1   
    26    11    19 2   
    27    12    13 ar  
    28    12    17 ar  
    29    13    14 ar  
    30    13    46 1   
    31    14    15 ar  
    32    14    47 1   
    33    15    16 ar  
    34    15    48 1   
    35    16    17 ar  
    36    16    49 1   
    37    17    18 1   
    38    18    50 1   
    39    19    20 1   
    40    20    21 1   
    41    20    61 1   
    42    21    22 1   
    43    22    23 2   
    44    22    24 1   
    45    24    25 1   
    46    25    26 1   
    47    25    51 1   
    48    25    52 1   
    49    26    27 ar  
    50    26    31 ar  
    51    27    28 ar  
    52    27    53 1   
    53    28    29 ar  
    54    28    54 1   
    55    29    30 ar  
    56    29    55 1   
    57    30    31 ar  
    58    31    56 1   
    59    32    33 ar  
    60    32    57 1   
    61    33    34 1   
    62    34    35 1   
    63    35    58 1   
    64    35    59 1   
    65    35    60 1   
@<TRIPOS>SUBSTRUCTURE
     1 EA9         1 TEMP              0 ****  ****    0 ROOT
