@<TRIPOS>MOLECULE
EA9
   61    65     1     0     0
SMALL
No Charge or Current Charge


@<TRIPOS>ATOM
      1 C1          -8.7640     9.6260    -1.3460 c3         1 EA9      -0.088100
      2 C2          -9.8050     8.5760    -1.7800 c3         1 EA9      -0.113400
      3 C3         -10.3440     7.7370    -0.5970 c3         1 EA9       0.161600
      4 O4         -11.2630     6.7430    -1.0990 os         1 EA9      -0.350100
      5 C5         -12.4640     7.0170    -1.7460 ca         1 EA9       0.082100
      6 C6         -12.9270     6.0170    -2.6160 ca         1 EA9      -0.098000
      7 C7         -14.1260     6.1730    -3.3260 ca         1 EA9      -0.106000
      8 C8         -14.9020     7.3390    -3.1740 ca         1 EA9      -0.072300
      9 C9         -16.2160     7.5490    -3.9420 c5         1 EA9       0.247300
     10 C10        -17.0550     6.3500    -3.6330 cc         1 EA9      -0.200300
     11 C11        -17.5480     5.7330    -2.4660 cc         1 EA9       0.352500
     12 C12        -17.5420     6.2740    -1.0840 ca         1 EA9      -0.156500
     13 C13        -17.4250     7.6700    -0.8770 ca         1 EA9      -0.054000
     14 C14        -17.4410     8.2240     0.4130 ca         1 EA9      -0.152000
     15 C15        -17.5930     7.3980     1.5320 ca         1 EA9      -0.055000
     16 C16        -17.7380     6.0160     1.3540 ca         1 EA9      -0.215000
     17 C17        -17.7220     5.4530     0.0650 ca         1 EA9       0.170100
     18 O18        -17.8290     4.0960    -0.0220 oh         1 EA9      -0.512100
     19 N19        -18.1370     4.5830    -2.8200 nd         1 EA9      -0.476800
     20 N20        -17.9460     4.4790    -4.2190 na         1 EA9       0.053800
     21 C21        -17.2480     5.5830    -4.6840 cd         1 EA9      -0.239600
     22 C22        -16.6120     6.1330    -5.8780 c          1 EA9       0.615600
     23 O23        -16.6030     5.6850    -7.0150 o          1 EA9      -0.534000
     24 N24        -15.9810     7.3150    -5.4110 n          1 EA9      -0.418800
     25 C25        -15.2890     8.2300    -6.3370 c3         1 EA9       0.159300
     26 C26        -14.1770     9.0420    -5.6920 ca         1 EA9      -0.158300
     27 C27        -14.4370    10.2960    -5.1100 ca         1 EA9      -0.058000
     28 C28        -13.3680    10.9840    -4.5140 ca         1 EA9      -0.165000
     29 C29        -12.0870    10.4060    -4.5250 ca         1 EA9       0.334900
     30 N30        -11.8280     9.2050    -5.0900 nb         1 EA9      -0.670000
     31 C31        -12.8620     8.5370    -5.6520 ca         1 EA9       0.340900
     32 C32        -14.4490     8.3420    -2.2940 ca         1 EA9      -0.182000
     33 C33        -13.2430     8.1990    -1.5680 ca         1 EA9       0.117100
     34 O34        -12.8420     9.1800    -0.6760 os         1 EA9      -0.328100
     35 C35        -13.5810    10.3950    -0.4600 c3         1 EA9       0.140900
     36 H1          -8.4110    10.1950    -2.2140 hc         1 EA9       0.034367
     37 H2          -9.2010    10.3310    -0.6290 hc         1 EA9       0.034367
     38 H3          -7.8980     9.1440    -0.8760 hc         1 EA9       0.034367
     39 H4         -10.6330     9.0920    -2.2780 hc         1 EA9       0.047700
     40 H5          -9.3520     7.9060    -2.5210 hc         1 EA9       0.047700
     41 H6          -9.4950     7.2350    -0.1160 h1         1 EA9       0.053200
     42 H7         -10.8020     8.3760     0.1670 h1         1 EA9       0.053200
     43 H8         -12.3430     5.1100    -2.7470 ha         1 EA9       0.128000
     44 H9         -14.4500     5.3820    -3.9980 ha         1 EA9       0.127000
     45 H10        -16.7180     8.5050    -3.7470 h1         1 EA9       0.072700
     46 H11        -17.3540     8.3530    -1.7130 ha         1 EA9       0.113000
     47 H12        -17.3480     9.3000     0.5430 ha         1 EA9       0.117000
     48 H13        -17.6070     7.8280     2.5320 ha         1 EA9       0.114000
     49 H14        -17.8580     5.3830     2.2290 ha         1 EA9       0.113000
     50 H15        -17.9380     3.7380     0.8830 ho         1 EA9       0.462000
     51 H17        -16.0320     8.9130    -6.7690 h1         1 EA9       0.069700
     52 H18        -14.8650     7.6470    -7.1660 h1         1 EA9       0.069700
     53 H19        -15.4390    10.7210    -5.1130 ha         1 EA9       0.128000
     54 H20        -13.5220    11.9530    -4.0480 ha         1 EA9       0.126000
     55 H21        -11.2420    10.9220    -4.0720 h4         1 EA9       0.020100
     56 H22        -12.6270     7.5660    -6.0870 h4         1 EA9       0.021100
     57 H23        -15.0570     9.2340    -2.1870 ha         1 EA9       0.119000
     58 H24        -13.0720    11.0210     0.2820 h1         1 EA9       0.044367
     59 H25        -13.6650    10.9710    -1.3900 h1         1 EA9       0.044367
     60 H26        -14.5900    10.1770    -0.0850 h1         1 EA9       0.044367
     61 H16        -18.2740     3.6780    -4.7590 hn         1 EA9       0.390000
@<TRIPOS>BOND
     1     1     2 1   
     2     1    36 1   
     3     1    37 1   
     4     1    38 1   
     5     2     3 1   
     6     2    39 1   
     7     2    40 1   
     8     3     4 1   
     9     3    41 1   
    10     3    42 1   
    11     4     5 1   
    12     5     6 ar  
    13     5    33 ar  
    14     6     7 ar  
    15     6    43 1   
    16     7     8 ar  
    17     7    44 1   
    18     8     9 1   
    19     8    32 ar  
    20     9    10 1   
    21     9    24 1   
    22     9    45 1   
    23    10    11 1   
    24    10    21 2   
    25    11    12 1   
    26    11    19 2   
    27    12    13 ar  
    28    12    17 ar  
    29    13    14 ar  
    30    13    46 1   
    31    14    15 ar  
    32    14    47 1   
    33    15    16 ar  
    34    15    48 1   
    35    16    17 ar  
    36    16    49 1   
    37    17    18 1   
    38    18    50 1   
    39    19    20 1   
    40    20    21 1   
    41    20    61 1   
    42    21    22 1   
    43    22    23 2   
    44    22    24 1   
    45    24    25 1   
    46    25    26 1   
    47    25    51 1   
    48    25    52 1   
    49    26    27 ar  
    50    26    31 ar  
    51    27    28 ar  
    52    27    53 1   
    53    28    29 ar  
    54    28    54 1   
    55    29    30 ar  
    56    29    55 1   
    57    30    31 ar  
    58    31    56 1   
    59    32    33 ar  
    60    32    57 1   
    61    33    34 1   
    62    34    35 1   
    63    35    58 1   
    64    35    59 1   
    65    35    60 1   
@<TRIPOS>SUBSTRUCTURE
     1 EA9         1 TEMP              0 ****  ****    0 ROOT
