@<TRIPOS>MOLECULE
EAA
   30    30     1     0     0
SMALL
bcc


@<TRIPOS>ATOM
      1 C1           6.4010    17.2240     4.8900 ca         1 EAA       0.212100
      2 O2           5.4050    16.3550     5.0020 os         1 EAA      -0.240900
      3 C2           7.4400    17.1080     5.8290 ca         1 EAA      -0.050600
      4 CL1          7.3400    15.8550     7.0000 cl         1 EAA      -0.059400
      5 C3           8.5160    17.9800     5.8060 ca         1 EAA       0.103400
      6 CL2          9.7780    17.7750     6.9590 cl         1 EAA      -0.094400
      7 C4           8.6080    18.9770     4.8330 ca         1 EAA      -0.234600
      8 C5           7.5860    19.0680     3.8980 ca         1 EAA      -0.052000
      9 C6           6.4930    18.2200     3.9210 ca         1 EAA      -0.246000
     10 C7           9.6970    20.0000     4.8440 c          1 EAA       0.594900
     11 O1           9.9220    20.6370     5.8520 o          1 EAA      -0.520100
     12 C8          10.4760    20.2350     3.6010 ce         1 EAA      -0.190400
     13 C9          11.2530    21.5210     3.5470 c3         1 EAA      -0.034200
     14 C10         12.0380    21.7480     2.2670 c3         1 EAA      -0.088100
     15 C11         10.5110    19.2940     2.6550 c2         1 EAA      -0.164000
     16 C12          4.3390    16.4130     4.0620 c3         1 EAA      -0.027600
     17 C13          3.2910    15.3290     4.3660 c          1 EAA       0.941600
     18 O            2.3400    15.3320     3.5610 o          1 EAA      -0.808300
     19 OXT          3.4760    14.5860     5.3380 o          1 EAA      -0.808300
     20 H5           7.6310    19.8350     3.1370 ha         1 EAA       0.126000
     21 H6           5.7210    18.3480     3.1760 ha         1 EAA       0.151000
     22 H91         10.5580    22.3520     3.7010 hc         1 EAA       0.055700
     23 H92         11.9330    21.5540     4.4030 hc         1 EAA       0.055700
     24 H101        12.5530    22.7070     2.3110 hc         1 EAA       0.029700
     25 H102        12.7940    20.9770     2.1120 hc         1 EAA       0.029700
     26 H103        11.3900    21.7630     1.3900 hc         1 EAA       0.029700
     27 H111         9.9570    18.3690     2.7430 ha         1 EAA       0.121500
     28 H112        11.1120    19.4020     1.7620 ha         1 EAA       0.121500
     29 H121         3.8580    17.3970     4.0940 h1         1 EAA       0.023200
     30 H122         4.7230    16.2690     3.0460 h1         1 EAA       0.023200
@<TRIPOS>BOND
     1     1     2 1   
     2     1     3 ar  
     3     1     9 ar  
     4     2    16 1   
     5     3     4 1   
     6     3     5 ar  
     7     5     6 1   
     8     5     7 ar  
     9     7     8 ar  
    10     7    10 1   
    11     8     9 ar  
    12     8    20 1   
    13     9    21 1   
    14    10    11 2   
    15    10    12 1   
    16    12    13 1   
    17    12    15 2   
    18    13    14 1   
    19    13    22 1   
    20    13    23 1   
    21    14    24 1   
    22    14    25 1   
    23    14    26 1   
    24    15    27 1   
    25    15    28 1   
    26    16    17 1   
    27    16    29 1   
    28    16    30 1   
    29    17    18 1   
    30    17    19 1   
@<TRIPOS>SUBSTRUCTURE
     1 EAA         1 TEMP              0 ****  ****    0 ROOT
