@<TRIPOS>MOLECULE
EAA
   30    30     1     0     0
SMALL
No Charge or Current Charge


@<TRIPOS>ATOM
      1 C1           6.3950    17.3520     4.9240 ca         1 EAA       0.212100
      2 O2           5.3190    16.4840     4.9940 os         1 EAA      -0.264100
      3 C2           7.2550    17.4530     6.0360 ca         1 EAA       0.041000
      4 Cl1          6.9420    16.4700     7.4760 cl         1 EAA      -0.151000
      5 C3           8.3620    18.3290     5.9990 ca         1 EAA       0.195000
      6 Cl2          9.4570    18.4050     7.3880 cl         1 EAA      -0.186000
      7 C4           8.6160    19.1020     4.8450 ca         1 EAA      -0.234600
      8 C5           7.7500    19.0000     3.7390 ca         1 EAA      -0.034000
      9 C6           6.6500    18.1300     3.7750 ca         1 EAA      -0.228000
     10 C7           9.7710    20.0640     4.7920 c          1 EAA       0.594900
     11 O1           9.8600    20.9460     5.6380 o          1 EAA      -0.520100
     12 C8          10.7480    19.9740     3.6340 ce         1 EAA      -0.190400
     13 C9          11.7780    21.0920     3.4860 c3         1 EAA      -0.034200
     14 C10         11.3550    22.1460     2.4460 c3         1 EAA      -0.088100
     15 C11         10.7680    18.9280     2.7670 c2         1 EAA      -0.264000
     16 C12          4.3850    16.3120     3.9020 c3         1 EAA      -0.004400
     17 C13          3.2640    15.2820     4.2180 c          1 EAA       0.731000
     18 O            2.4280    15.0730     3.3490 o          1 EAA      -0.703000
     19 OXT          3.2500    14.7200     5.3070 o          1 EAA      -0.703000
     20 H5           7.9250    19.6040     2.8500 ha         1 EAA       0.108000
     21 H6           6.0030    18.0770     2.9040 ha         1 EAA       0.133000
     22 H91         11.9750    21.5950     4.4400 hc         1 EAA       0.055700
     23 H92         12.7430    20.6720     3.1770 hc         1 EAA       0.055700
     24 H101        12.1200    22.9270     2.3590 hc         1 EAA       0.029700
     25 H102        11.2190    21.6860     1.4600 hc         1 EAA       0.029700
     26 H103        10.4110    22.6200     2.7400 hc         1 EAA       0.029700
     27 H111        10.0870    18.0810     2.8420 ha         1 EAA       0.171500
     28 H112        11.4910    18.8790     1.9510 ha         1 EAA       0.171500
     29 H121         3.9000    17.2670     3.6650 h1         1 EAA       0.023200
     30 H122         4.9120    15.9620     3.0050 h1         1 EAA       0.023200
@<TRIPOS>BOND
     1     1     2 1   
     2     1     3 ar  
     3     1     9 ar  
     4     2    16 1   
     5     3     4 1   
     6     3     5 ar  
     7     5     6 1   
     8     5     7 ar  
     9     7     8 ar  
    10     7    10 1   
    11     8     9 ar  
    12     8    20 1   
    13     9    21 1   
    14    10    11 2   
    15    10    12 1   
    16    12    13 1   
    17    12    15 2   
    18    13    14 1   
    19    13    22 1   
    20    13    23 1   
    21    14    24 1   
    22    14    25 1   
    23    14    26 1   
    24    15    27 1   
    25    15    28 1   
    26    16    17 1   
    27    16    29 1   
    28    16    30 1   
    29    17    18 1   
    30    17    19 1   
@<TRIPOS>SUBSTRUCTURE
     1 EAA         1 TEMP              0 ****  ****    0 ROOT
