@<TRIPOS>MOLECULE
EAC
   19    18     1     0     0
SMALL
bcc


@<TRIPOS>ATOM
      1 C4           3.4260     0.4920    -0.6920 c3         1 EAC      -0.097100
      2 C9           2.5130    -0.3470     0.1670 c3         1 EAC       0.145400
      3 O5           1.2490     0.3330     0.2580 os         1 EAC      -0.423900
      4 C10          0.2880    -0.2290     0.9700 c          1 EAC       0.661100
      5 O6           0.4140    -1.2560     1.5880 o          1 EAC      -0.528000
      6 C13         -3.0490     0.9470    -0.5670 c3         1 EAC      -0.199100
      7 C14         -1.7800     0.1770    -0.3520 c          1 EAC       0.582100
      8 O8          -1.3970    -0.6910    -1.0990 o          1 EAC      -0.501100
      9 C15         -0.9910     0.5590     0.8850 c3         1 EAC      -0.256400
     10 H1           3.0140     0.6410    -1.6900 hc         1 EAC       0.047033
     11 H2           3.6160     1.4670    -0.2430 hc         1 EAC       0.047033
     12 H3           4.3830    -0.0180    -0.7990 hc         1 EAC       0.047033
     13 H4           2.3620    -1.3350    -0.2710 h1         1 EAC       0.050700
     14 H5           2.9300    -0.4820     1.1670 h1         1 EAC       0.050700
     15 H6          -2.8140     1.9980    -0.7440 hc         1 EAC       0.064367
     16 H7          -3.6080     0.5590    -1.4150 hc         1 EAC       0.064367
     17 H8          -3.6720     0.9110     0.3270 hc         1 EAC       0.064367
     18 H9          -1.6090     0.3620     1.7630 hc         1 EAC       0.091200
     19 H10         -0.8000     1.6350     0.8670 hc         1 EAC       0.091200
@<TRIPOS>BOND
     1     1     2 1   
     2     1    10 1   
     3     1    11 1   
     4     1    12 1   
     5     2     3 1   
     6     2    13 1   
     7     2    14 1   
     8     3     4 1   
     9     4     5 2   
    10     4     9 1   
    11     6     7 1   
    12     6    15 1   
    13     6    16 1   
    14     6    17 1   
    15     7     8 2   
    16     7     9 1   
    17     9    18 1   
    18     9    19 1   
@<TRIPOS>SUBSTRUCTURE
     1 EAC         1 TEMP              0 ****  ****    0 ROOT
