@<TRIPOS>MOLECULE
EAC
   19    18     1     0     0
SMALL
No Charge or Current Charge


@<TRIPOS>ATOM
      1 C4           3.5180     0.9270    -0.2220 c3         1 EAC      -0.097100
      2 C9           2.4680    -0.1950    -0.1890 c3         1 EAC       0.168600
      3 O5           1.2330     0.3850     0.2660 os         1 EAC      -0.447100
      4 C10          0.1320    -0.4250     0.3520 c          1 EAC       0.612100
      5 O6           0.1930    -1.6450     0.2990 o          1 EAC      -0.479000
      6 C13         -2.8020     0.8420    -0.7820 c3         1 EAC      -0.199100
      7 C14         -2.3020    -0.0870     0.3220 c          1 EAC       0.582100
      8 O8          -2.9120    -1.1020     0.6290 o          1 EAC      -0.501100
      9 C15         -1.0120     0.3140     1.0110 c3         1 EAC      -0.256400
     10 H1           3.2090     1.7250    -0.9070 hc         1 EAC       0.047033
     11 H2           3.6570     1.3550     0.7770 hc         1 EAC       0.047033
     12 H3           4.4820     0.5340    -0.5660 hc         1 EAC       0.047033
     13 H4           2.3540    -0.6200    -1.1960 h1         1 EAC       0.050700
     14 H5           2.8040    -0.9900     0.4900 h1         1 EAC       0.050700
     15 H6          -1.9940     1.0100    -1.5040 hc         1 EAC       0.064367
     16 H7          -3.7130     0.4710    -1.2660 hc         1 EAC       0.064367
     17 H8          -2.9500     1.8430    -0.3620 hc         1 EAC       0.064367
     18 H9          -1.0550    -0.0060     2.0570 hc         1 EAC       0.091200
     19 H10         -0.8350     1.3900     0.9100 hc         1 EAC       0.091200
@<TRIPOS>BOND
     1     1     2 1   
     2     1    10 1   
     3     1    11 1   
     4     1    12 1   
     5     2     3 1   
     6     2    13 1   
     7     2    14 1   
     8     3     4 1   
     9     4     5 2   
    10     4     9 1   
    11     6     7 1   
    12     6    15 1   
    13     6    16 1   
    14     6    17 1   
    15     7     8 2   
    16     7     9 1   
    17     9    18 1   
    18     9    19 1   
@<TRIPOS>SUBSTRUCTURE
     1 EAC         1 TEMP              0 ****  ****    0 ROOT
