@<TRIPOS>MOLECULE
EAD
   88    93     1     0     0
SMALL
No Charge or Current Charge


@<TRIPOS>ATOM
      1 P1           1.6000    -0.8270     1.0680 p5         1 EAD       1.450800
      2 O1           1.5070     0.0460    -0.1370 o          1 EAD      -0.850000
      3 O2           0.9590    -0.1570     2.2350 o          1 EAD      -0.850000
      4 O3           3.1390    -1.1850     1.3880 os         1 EAD      -0.559400
      5 C1           3.5140    -1.7180     2.6690 c3         1 EAD       0.213600
      6 C2           4.4270    -0.7290     3.4640 c5         1 EAD       0.159300
      7 O4           5.5420    -0.2950     2.6340 os         1 EAD      -0.391000
      8 C3           3.7500     0.5850     3.9860 c5         1 EAD       0.095300
      9 O5           4.3960     1.1150     5.1520 oh         1 EAD      -0.713000
     10 C4           3.9820     1.5370     2.7800 c5         1 EAD       0.064300
     11 O6           3.8400     2.9220     3.1610 oh         1 EAD      -0.703000
     12 C5           5.4410     1.1250     2.3890 c5         1 EAD       0.328300
     13 N1           5.8800     1.4030     1.0240 na         1 EAD      -0.295300
     14 C6           5.1070     1.2490    -0.1330 cc         1 EAD       0.502700
     15 N2           5.7870     1.6470    -1.2300 nd         1 EAD      -0.559100
     16 C7           7.0190     2.0610    -0.7150 ca         1 EAD      -0.070600
     17 C8           8.1460     2.5810    -1.3870 ca         1 EAD       0.429900
     18 N3           8.1870     2.7600    -2.7350 nv         1 EAD      -1.082900
     19 N4           9.2580     2.9220    -0.7170 nb         1 EAD      -0.332000
     20 C9           9.2230     2.7410     0.6270 ca         1 EAD       0.136900
     21 N5           8.1880     2.2520     1.3520 nb         1 EAD      -0.209000
     22 C10          7.0890     1.9160     0.6480 ca         1 EAD       0.099500
     23 O7           1.0420    -2.2900     0.8960 os         1 EAD      -0.689800
     24 P2           1.0120    -2.8380    -0.5790 p5         1 EAD       1.463800
     25 O8           2.3410    -2.7890    -1.2570 o          1 EAD      -0.842000
     26 O9          -0.0890    -2.2840    -1.4230 o          1 EAD      -0.842000
     27 O10          0.6940    -4.3780    -0.2100 os         1 EAD      -0.576400
     28 C11         -0.6370    -4.8560     0.0580 c3         1 EAD       0.226600
     29 C12         -1.2110    -4.2820     1.3930 c5         1 EAD       0.141300
     30 O11         -1.9090    -3.0300     1.1290 os         1 EAD      -0.386000
     31 C13         -2.2860    -5.2270     2.0420 c5         1 EAD       0.098300
     32 O12         -2.4070    -5.0650     3.4610 oh         1 EAD      -0.715000
     33 C14         -3.5710    -4.7230     1.3350 c5         1 EAD       0.054300
     34 O13         -4.7660    -5.2080     1.9940 oh         1 EAD      -0.716000
     35 C15         -3.3040    -3.1820     1.4570 c5         1 EAD       0.473500
     36 N6          -4.2000    -2.5080     0.4650 nh         1 EAD      -0.513200
     37 C16         -5.3560    -1.9300     0.9860 c2         1 EAD       0.141000
     38 C17         -6.0420    -0.9630     0.3390 ce         1 EAD      -0.335400
     39 C18         -7.3150    -0.4390     0.9160 c          1 EAD       0.644300
     40 O14         -7.6010    -0.5360     2.0960 o          1 EAD      -0.669100
     41 N7          -8.2140     0.0680     0.0500 nt         1 EAD      -0.607000
     42 C19         -5.5770    -0.4560    -1.0520 c6         1 EAD      -0.025300
     43 C20         -4.2860    -1.1580    -1.4860 c2         1 EAD      -0.296200
     44 C21         -3.6690    -2.1050    -0.7620 c2         1 EAD       0.027000
     45 C22         -5.4090     1.0980    -1.0860 c          1 EAD       0.577700
     46 O15         -4.6940     1.6650    -0.2660 o          1 EAD      -0.470100
     47 N8          -7.4240     3.4680    -4.1440 nb         1 EAD      -0.691000
     48 C23         -7.1460     2.1640    -4.3580 ca         1 EAD       0.308900
     49 C24         -6.5020     1.3490    -3.4110 ca         1 EAD      -0.160000
     50 C25         -6.1230     1.8940    -2.1610 ca         1 EAD      -0.104600
     51 C26         -6.4090     3.2610    -1.9520 ca         1 EAD      -0.066000
     52 C27         -7.0570     4.0050    -2.9570 ca         1 EAD       0.347300
     53 C28         -7.3680     5.4840    -2.7550 c3         1 EAD      -0.112700
     54 C29         -6.1450     6.3900    -3.0130 c3         1 EAD      -0.098100
     55 H11          2.6340    -1.9590     3.2790 h1         1 EAD       0.006700
     56 H12A         4.0680    -2.6530     2.5220 h1         1 EAD       0.006700
     57 H2           4.8320    -1.2960     4.3130 h1         1 EAD       0.093700
     58 H3           2.6800     0.4350     4.1840 h1         1 EAD       0.044700
     59 HO5          4.3840     2.0930     5.0090 ho         1 EAD       0.500000
     60 H4           3.2890     1.3040     1.9640 h1         1 EAD       0.072700
     61 HO6          2.8920     3.1680     3.0370 ho         1 EAD       0.495000
     62 H5           6.1450     1.6450     3.0510 h2         1 EAD       0.092700
     63 H6           4.0990     0.8520    -0.1170 h5         1 EAD       0.146800
     64 HN31         7.4570     2.3060    -3.2790 hn         1 EAD       0.496000
     65 HN32         9.0960     2.8550    -3.1800 hn         1 EAD       0.496000
     66 H9          10.1180     3.0170     1.1810 h5         1 EAD       0.017100
     67 H111        -1.3160    -4.6190    -0.7710 h1         1 EAD       0.016700
     68 H112        -0.6040    -5.9500     0.1380 h1         1 EAD       0.016700
     69 H12         -0.3820    -4.1060     2.0910 h1         1 EAD       0.088700
     70 H1          -2.0920    -6.2820     1.8050 h1         1 EAD       0.042700
     71 H7          -3.3540    -5.2800     3.6470 ho         1 EAD       0.500000
     72 H14         -3.5670    -5.0270     0.2770 h1         1 EAD       0.076700
     73 H13         -5.5240    -5.0440     1.3830 ho         1 EAD       0.497000
     74 H15         -3.4790    -2.8320     2.4820 h2         1 EAD       0.065700
     75 H16         -5.6860    -2.3150     1.9560 h4         1 EAD       0.201000
     76 HN71        -8.0170     0.0770    -0.9380 hn         1 EAD       0.292000
     77 HN72        -9.1050     0.3880     0.4000 hn         1 EAD       0.292000
     78 H19         -6.3450    -0.7420    -1.7800 hc         1 EAD       0.027700
     79 H20         -3.8600    -0.8450    -2.4420 ha         1 EAD       0.220000
     80 H21         -2.7380    -2.5800    -1.0940 h4         1 EAD       0.263000
     81 H26         -6.1350     3.7520    -1.0210 ha         1 EAD       0.185000
     82 H281        -8.1870     5.8000    -3.4150 hc         1 EAD       0.032700
     83 H282        -7.7230     5.6520    -1.7310 hc         1 EAD       0.032700
     84 H291        -5.3250     6.1410    -2.3280 hc         1 EAD       0.046033
     85 H292        -5.7850     6.2710    -4.0420 hc         1 EAD       0.046033
     86 H293        -6.4090     7.4440    -2.8610 hc         1 EAD       0.046033
     87 H23         -7.4400     1.7600    -5.3260 h4         1 EAD      -0.010900
     88 H24         -6.2890     0.3180    -3.6750 ha         1 EAD       0.099000
@<TRIPOS>BOND
     1     1     2 1   
     2     1     3 1   
     3     1     4 1   
     4     1    23 1   
     5     4     5 1   
     6     5     6 1   
     7     5    55 1   
     8     5    56 1   
     9     6     7 1   
    10     6     8 1   
    11     6    57 1   
    12     7    12 1   
    13     8     9 1   
    14     8    10 1   
    15     8    58 1   
    16     9    59 1   
    17    10    11 1   
    18    10    12 1   
    19    10    60 1   
    20    11    61 1   
    21    12    13 1   
    22    12    62 1   
    23    13    14 1   
    24    13    22 1   
    25    14    15 2   
    26    14    63 1   
    27    15    16 1   
    28    16    17 ar  
    29    16    22 ar  
    30    17    18 1   
    31    17    19 ar  
    32    18    64 1   
    33    18    65 1   
    34    19    20 ar  
    35    20    21 ar  
    36    20    66 1   
    37    21    22 ar  
    38    23    24 1   
    39    24    25 1   
    40    24    26 1   
    41    24    27 1   
    42    27    28 1   
    43    28    29 1   
    44    28    67 1   
    45    28    68 1   
    46    29    30 1   
    47    29    31 1   
    48    29    69 1   
    49    30    35 1   
    50    31    32 1   
    51    31    33 1   
    52    31    70 1   
    53    32    71 1   
    54    33    34 1   
    55    33    35 1   
    56    33    72 1   
    57    34    73 1   
    58    35    36 1   
    59    35    74 1   
    60    36    37 1   
    61    36    44 1   
    62    37    38 2   
    63    37    75 1   
    64    38    39 1   
    65    38    42 1   
    66    39    40 2   
    67    39    41 1   
    68    41    76 1   
    69    41    77 1   
    70    42    43 1   
    71    42    45 1   
    72    42    78 1   
    73    43    44 2   
    74    43    79 1   
    75    44    80 1   
    76    45    46 2   
    77    45    50 1   
    78    47    48 ar  
    79    47    52 ar  
    80    48    49 ar  
    81    48    87 1   
    82    49    50 ar  
    83    49    88 1   
    84    50    51 ar  
    85    51    52 ar  
    86    51    81 1   
    87    52    53 1   
    88    53    54 1   
    89    53    82 1   
    90    53    83 1   
    91    54    84 1   
    92    54    85 1   
    93    54    86 1   
@<TRIPOS>SUBSTRUCTURE
     1 EAD         1 TEMP              0 ****  ****    0 ROOT
