@<TRIPOS>MOLECULE
EAD
   88    93     1     0     0
SMALL
abcg2


@<TRIPOS>ATOM
      1 P1          -0.6800    -0.1860     1.3570 p5         1 EAD       1.450800
      2 O1          -0.4070     0.5240     0.0680 o          1 EAD      -0.850000
      3 O2          -1.9740    -0.0320     2.0890 o          1 EAD      -0.850000
      4 O3           0.5480     0.1500     2.4210 os         1 EAD      -0.559400
      5 C1           0.7970     1.4980     2.7090 c3         1 EAD       0.213600
      6 C2           2.2280     1.6490     3.1960 c5         1 EAD       0.159300
      7 O4           3.1550     1.0710     2.2740 os         1 EAD      -0.391000
      8 C3           2.6260     3.1130     3.3040 c5         1 EAD       0.095300
      9 O5           3.6720     3.2350     4.2320 oh         1 EAD      -0.713000
     10 C4           3.1240     3.3780     1.8790 c5         1 EAD       0.064300
     11 O6           4.0180     4.4430     1.7540 oh         1 EAD      -0.703000
     12 C5           3.8290     2.0570     1.5580 c5         1 EAD       0.328300
     13 N1           3.8180     1.7200     0.1510 na         1 EAD      -0.295300
     14 C6           2.8080     1.1300    -0.5650 cc         1 EAD       0.502700
     15 N2           3.0860     1.0180    -1.8320 nd         1 EAD      -0.559100
     16 C7           4.3390     1.5580    -1.9630 ca         1 EAD      -0.070600
     17 C8           5.1960     1.7350    -3.0630 ca         1 EAD       0.429900
     18 N3           4.8610     1.3690    -4.3030 nv         1 EAD      -1.082900
     19 N4           6.3880     2.3040    -2.8480 nb         1 EAD      -0.332000
     20 C9           6.7140     2.6730    -1.6110 ca         1 EAD       0.136900
     21 N5           5.9990     2.5640    -0.5060 nb         1 EAD      -0.209000
     22 C10          4.8150     1.9990    -0.7380 ca         1 EAD       0.099500
     23 O7          -0.3680    -1.7820     1.2240 os         1 EAD      -0.689800
     24 P2           0.5790    -2.4870     0.0800 p5         1 EAD       1.463800
     25 O8           1.9920    -2.0360     0.2450 o          1 EAD      -0.842000
     26 O9          -0.1040    -2.4620    -1.2540 o          1 EAD      -0.842000
     27 O10          0.5220    -4.0220     0.6830 os         1 EAD      -0.576400
     28 C11         -0.3480    -5.0030     0.1700 c3         1 EAD       0.226600
     29 C12         -1.4650    -5.3490     1.1400 c5         1 EAD       0.141300
     30 O11         -2.2650    -4.2070     1.4540 os         1 EAD      -0.386000
     31 C13         -2.4180    -6.3770     0.5380 c5         1 EAD       0.098300
     32 O12         -2.9800    -7.1450     1.5720 oh         1 EAD      -0.715000
     33 C14         -3.4660    -5.4600    -0.0960 c5         1 EAD       0.054300
     34 O13         -4.7240    -6.0400    -0.2850 oh         1 EAD      -0.716000
     35 C15         -3.5620    -4.3550     0.9560 c5         1 EAD       0.473500
     36 N6          -4.0570    -3.0880     0.4740 nh         1 EAD      -0.513200
     37 C16         -5.3560    -2.7560     0.6760 c2         1 EAD       0.141000
     38 C17         -5.9420    -1.6520     0.1690 ce         1 EAD      -0.335400
     39 C18         -7.3730    -1.4580     0.4570 c          1 EAD       0.644300
     40 O14         -8.0110    -2.2010     1.2020 o          1 EAD      -0.669100
     41 N7          -7.9620    -0.3960    -0.1350 nt         1 EAD      -0.607000
     42 C19         -5.1300    -0.6200    -0.5650 c6         1 EAD      -0.025300
     43 C20         -3.7860    -1.1900    -0.9350 c2         1 EAD      -0.296200
     44 C21         -3.3090    -2.3110    -0.3990 c2         1 EAD       0.027000
     45 C22         -4.8720     0.6060     0.3110 c          1 EAD       0.577700
     46 O15         -5.1330     0.6240     1.4870 o          1 EAD      -0.470100
     47 N8          -3.0760     4.0430    -1.4680 nb         1 EAD      -0.691000
     48 C23         -4.0830     3.4230    -2.0650 ca         1 EAD       0.308900
     49 C24         -4.6890     2.2820    -1.5590 ca         1 EAD      -0.160000
     50 C25         -4.2330     1.7860    -0.3440 ca         1 EAD      -0.104600
     51 C26         -3.1810     2.4370     0.2860 ca         1 EAD      -0.066000
     52 C27         -2.6200     3.5590    -0.3130 ca         1 EAD       0.347300
     53 C28         -1.4420     4.2610     0.2990 c3         1 EAD      -0.112700
     54 C29         -0.1630     4.0190    -0.4990 c3         1 EAD      -0.098100
     55 H11          0.6340     2.1330     1.8280 h1         1 EAD       0.006700
     56 H12A         0.1310     1.8750     3.4960 h1         1 EAD       0.006700
     57 H2           2.3440     1.1330     4.1530 h1         1 EAD       0.093700
     58 H3           1.7730     3.7540     3.5660 h1         1 EAD       0.044700
     59 HO5          4.1270     4.0670     4.0580 ho         1 EAD       0.500000
     60 H4           2.2630     3.4960     1.2100 h1         1 EAD       0.072700
     61 HO6          3.5200     5.2650     1.7050 ho         1 EAD       0.495000
     62 H5           4.8840     2.1190     1.8490 h2         1 EAD       0.092700
     63 H6           1.8910     0.7860    -0.1060 h5         1 EAD       0.146800
     64 HN31         3.9970     0.8890    -4.4850 hn         1 EAD       0.496000
     65 HN32         5.5140     1.4780    -5.0590 hn         1 EAD       0.496000
     66 H9           7.6950     3.1230    -1.5040 h5         1 EAD       0.017100
     67 H111        -0.7570    -4.7040    -0.8000 h1         1 EAD       0.016700
     68 H112         0.2310    -5.9180     0.0030 h1         1 EAD       0.016700
     69 H12         -1.0270    -5.7260     2.0710 h1         1 EAD       0.088700
     70 H1          -1.9160    -7.0100    -0.2060 h1         1 EAD       0.042700
     71 H7          -3.8070    -7.5180     1.2460 ho         1 EAD       0.500000
     72 H14         -3.0670    -5.0480    -1.0320 h1         1 EAD       0.076700
     73 H13         -4.7290    -6.5100    -1.1250 ho         1 EAD       0.497000
     74 H15         -4.2570    -4.6720     1.7440 h2         1 EAD       0.065700
     75 H16         -5.9320    -3.4540     1.2700 h4         1 EAD       0.201000
     76 HN71        -7.5310     0.1200    -0.8810 hn         1 EAD       0.292000
     77 HN72        -8.9580    -0.2790    -0.0380 hn         1 EAD       0.292000
     78 H19         -5.6190    -0.2850    -1.4900 hc         1 EAD       0.027700
     79 H20         -3.1500    -0.6280    -1.6030 ha         1 EAD       0.220000
     80 H21         -2.3110    -2.6500    -0.6360 h4         1 EAD       0.263000
     81 H26         -2.7790     2.0460     1.2100 ha         1 EAD       0.185000
     82 H281        -1.6500     5.3320     0.3480 hc         1 EAD       0.032700
     83 H282        -1.3060     3.9160     1.3260 hc         1 EAD       0.032700
     84 H291         0.0850     2.9580    -0.5040 hc         1 EAD       0.046033
     85 H292        -0.2780     4.3520    -1.5310 hc         1 EAD       0.046033
     86 H293         0.6730     4.5690    -0.0650 hc         1 EAD       0.046033
     87 H23         -4.4320     3.8500    -2.9990 h4         1 EAD      -0.010900
     88 H24         -5.5070     1.8270    -2.1020 ha         1 EAD       0.099000
@<TRIPOS>BOND
     1     1     2 1   
     2     1     3 1   
     3     1     4 1   
     4     1    23 1   
     5     4     5 1   
     6     5     6 1   
     7     5    55 1   
     8     5    56 1   
     9     6     7 1   
    10     6     8 1   
    11     6    57 1   
    12     7    12 1   
    13     8     9 1   
    14     8    10 1   
    15     8    58 1   
    16     9    59 1   
    17    10    11 1   
    18    10    12 1   
    19    10    60 1   
    20    11    61 1   
    21    12    13 1   
    22    12    62 1   
    23    13    14 1   
    24    13    22 1   
    25    14    15 2   
    26    14    63 1   
    27    15    16 1   
    28    16    17 ar  
    29    16    22 ar  
    30    17    18 1   
    31    17    19 ar  
    32    18    64 1   
    33    18    65 1   
    34    19    20 ar  
    35    20    21 ar  
    36    20    66 1   
    37    21    22 ar  
    38    23    24 1   
    39    24    25 1   
    40    24    26 1   
    41    24    27 1   
    42    27    28 1   
    43    28    29 1   
    44    28    67 1   
    45    28    68 1   
    46    29    30 1   
    47    29    31 1   
    48    29    69 1   
    49    30    35 1   
    50    31    32 1   
    51    31    33 1   
    52    31    70 1   
    53    32    71 1   
    54    33    34 1   
    55    33    35 1   
    56    33    72 1   
    57    34    73 1   
    58    35    36 1   
    59    35    74 1   
    60    36    37 1   
    61    36    44 1   
    62    37    38 2   
    63    37    75 1   
    64    38    39 1   
    65    38    42 1   
    66    39    40 2   
    67    39    41 1   
    68    41    76 1   
    69    41    77 1   
    70    42    43 1   
    71    42    45 1   
    72    42    78 1   
    73    43    44 2   
    74    43    79 1   
    75    44    80 1   
    76    45    46 2   
    77    45    50 1   
    78    47    48 ar  
    79    47    52 ar  
    80    48    49 ar  
    81    48    87 1   
    82    49    50 ar  
    83    49    88 1   
    84    50    51 ar  
    85    51    52 ar  
    86    51    81 1   
    87    52    53 1   
    88    53    54 1   
    89    53    82 1   
    90    53    83 1   
    91    54    84 1   
    92    54    85 1   
    93    54    86 1   
@<TRIPOS>SUBSTRUCTURE
     1 EAD         1 TEMP              0 ****  ****    0 ROOT
