@<TRIPOS>MOLECULE
EAE
   32    33     1     0     0
SMALL
No Charge or Current Charge


@<TRIPOS>ATOM
      1 C1           0.5510    -3.1990     0.7260 c3         1 EAE      -0.116100
      2 C2           0.5250    -2.3710    -0.5730 c3         1 EAE       0.077600
      3 C11         -5.6520     0.0610     0.1030 c3         1 EAE       0.148900
      4 C12         -2.0420    -0.8300    -0.1850 ca         1 EAE      -0.176000
      5 C13         -0.7650    -0.2340    -0.1900 ca         1 EAE       0.049800
      6 C14          2.8570    -0.4080    -0.1420 ce         1 EAE      -0.452200
      7 C15          4.0670     0.4440     0.0240 c          1 EAE       0.582300
      8 C16          5.4030    -0.2920     0.0440 c3         1 EAE      -0.180100
      9 N3           0.4490    -0.9150    -0.3240 na         1 EAE      -0.136700
     10 C4           1.5300    -0.0130    -0.1810 cd         1 EAE       0.170500
     11 S5           1.0070     1.6960    -0.0320 ss         1 EAE       0.152400
     12 C6          -0.6580     1.1330    -0.0360 ca         1 EAE      -0.271000
     13 C7          -1.7810     1.9590     0.1130 ca         1 EAE      -0.004000
     14 C8          -3.0570     1.3710     0.1090 ca         1 EAE      -0.220000
     15 C9          -3.1890    -0.0300    -0.0380 ca         1 EAE       0.174100
     16 O10         -4.4160    -0.6620    -0.0420 os         1 EAE      -0.341100
     17 O17          4.0190     1.6590     0.1370 o          1 EAE      -0.586100
     18 H1           0.6110    -4.2690     0.4950 hc         1 EAE       0.048700
     19 H2           1.4180    -2.9290     1.3400 hc         1 EAE       0.048700
     20 H3          -0.3580    -3.0240     1.3150 hc         1 EAE       0.048700
     21 H4           1.4250    -2.5880    -1.1600 h1         1 EAE       0.060700
     22 H5          -0.3260    -2.6810    -1.1900 h1         1 EAE       0.060700
     23 H6          -6.5030    -0.6310     0.0730 h1         1 EAE       0.043367
     24 H7          -5.6820     0.5950     1.0620 h1         1 EAE       0.043367
     25 H8          -5.7760     0.7880    -0.7100 h1         1 EAE       0.043367
     26 H9          -2.1650    -1.9040    -0.2880 ha         1 EAE       0.135000
     27 H10          3.0560    -1.4720    -0.2250 ha         1 EAE       0.191000
     28 H12          5.4900    -0.8950    -0.8660 hc         1 EAE       0.053700
     29 H13          6.2580     0.3820     0.1670 hc         1 EAE       0.053700
     30 H14          5.3740    -1.0580     0.8280 hc         1 EAE       0.053700
     31 H15         -1.6680     3.0350     0.2330 ha         1 EAE       0.125000
     32 H16         -3.9250     2.0130     0.2250 ha         1 EAE       0.122000
@<TRIPOS>BOND
     1     1     2 1   
     2     1    18 1   
     3     1    19 1   
     4     1    20 1   
     5     2     9 1   
     6     2    21 1   
     7     2    22 1   
     8     3    16 1   
     9     3    23 1   
    10     3    24 1   
    11     3    25 1   
    12     4     5 ar  
    13     4    15 ar  
    14     4    26 1   
    15     5     9 1   
    16     5    12 ar  
    17     6     7 1   
    18     6    10 2   
    19     6    27 1   
    20     7     8 1   
    21     7    17 2   
    22     8    28 1   
    23     8    29 1   
    24     8    30 1   
    25     9    10 1   
    26    10    11 1   
    27    11    12 1   
    28    12    13 ar  
    29    13    14 ar  
    30    13    31 1   
    31    14    15 ar  
    32    14    32 1   
    33    15    16 1   
@<TRIPOS>SUBSTRUCTURE
     1 EAE         1 TEMP              0 ****  ****    0 ROOT
