@<TRIPOS>MOLECULE
EAE
   32    33     1     0     0
SMALL
bcc


@<TRIPOS>ATOM
      1 C1           0.6560    -3.1310     0.9010 c3         1 EAE      -0.116100
      2 C2           0.4940    -2.4070    -0.4240 c3         1 EAE       0.048300
      3 C11         -5.5470     0.1650     0.0070 c3         1 EAE       0.125700
      4 C12         -2.0750    -0.8580    -0.1920 ca         1 EAE      -0.194000
      5 C13         -0.8090    -0.2990    -0.1500 ca         1 EAE       0.049800
      6 C14          2.8020    -0.6090    -0.1890 ce         1 EAE      -0.402200
      7 C15          3.8740     0.3230    -0.0690 c          1 EAE       0.582300
      8 C16          5.2830    -0.2120    -0.1060 c3         1 EAE      -0.180100
      9 N3           0.4000    -0.9630    -0.2660 na         1 EAE      -0.107400
     10 C4           1.5000    -0.1750    -0.1520 cd         1 EAE       0.170500
     11 S5           1.0600     1.5020     0.0540 ss         1 EAE       0.025500
     12 C6          -0.6360     1.0740     0.0200 ca         1 EAE      -0.144100
     13 C7          -1.7310     1.9050     0.1380 ca         1 EAE      -0.022000
     14 C8          -3.0100     1.3640     0.0900 ca         1 EAE      -0.238000
     15 C9          -3.1800    -0.0130    -0.0730 ca         1 EAE       0.174100
     16 O10         -4.3790    -0.6210    -0.1270 os         1 EAE      -0.317900
     17 O17          3.6760     1.5360     0.0610 o          1 EAE      -0.586100
     18 H1           0.7360    -4.2030     0.7230 hc         1 EAE       0.048700
     19 H2           1.5570    -2.8090     1.4230 hc         1 EAE       0.048700
     20 H3          -0.1990    -2.9610     1.5550 hc         1 EAE       0.048700
     21 H4           1.3250    -2.6240    -1.0940 h1         1 EAE       0.060700
     22 H5          -0.4010    -2.7450    -0.9430 h1         1 EAE       0.060700
     23 H6          -6.3880    -0.5220    -0.0480 h1         1 EAE       0.043367
     24 H7          -5.5800     0.6860     0.9670 h1         1 EAE       0.043367
     25 H8          -5.6410     0.8990    -0.7970 h1         1 EAE       0.043367
     26 H9          -2.2290    -1.9220    -0.3060 ha         1 EAE       0.153000
     27 H10          3.0200    -1.6610    -0.2930 ha         1 EAE       0.141000
     28 H12          5.8120     0.2000    -0.9670 hc         1 EAE       0.053700
     29 H13          5.8260     0.1070     0.7850 hc         1 EAE       0.053700
     30 H14          5.3240    -1.2980    -0.1670 hc         1 EAE       0.053700
     31 H15         -1.6050     2.9730     0.2650 ha         1 EAE       0.143000
     32 H16         -3.8570     2.0290     0.1840 ha         1 EAE       0.140000
@<TRIPOS>BOND
     1     1     2 1   
     2     1    18 1   
     3     1    19 1   
     4     1    20 1   
     5     2     9 1   
     6     2    21 1   
     7     2    22 1   
     8     3    16 1   
     9     3    23 1   
    10     3    24 1   
    11     3    25 1   
    12     4     5 ar  
    13     4    15 ar  
    14     4    26 1   
    15     5     9 1   
    16     5    12 ar  
    17     6     7 1   
    18     6    10 2   
    19     6    27 1   
    20     7     8 1   
    21     7    17 2   
    22     8    28 1   
    23     8    29 1   
    24     8    30 1   
    25     9    10 1   
    26    10    11 1   
    27    11    12 1   
    28    12    13 ar  
    29    13    14 ar  
    30    13    31 1   
    31    14    15 ar  
    32    14    32 1   
    33    15    16 1   
@<TRIPOS>SUBSTRUCTURE
     1 EAE         1 TEMP              0 ****  ****    0 ROOT
