@<TRIPOS>MOLECULE
EAF
   54    58     1     0     0
SMALL
abcg2


@<TRIPOS>ATOM
      1 O1         -27.7810    -8.8680    26.6690 oh         1 EAF      -0.548100
      2 C1         -26.8590    -6.2100    23.6370 ca         1 EAF      -0.162000
      3 C2         -28.1420    -6.7250    23.7860 ca         1 EAF      -0.057000
      4 C3         -19.2080    -8.9090    23.2970 ca         1 EAF      -0.165000
      5 C4         -25.8720    -6.5980    24.5230 ca         1 EAF      -0.046000
      6 C5         -22.5130    -4.6230    24.5790 ca         1 EAF      -0.051000
      7 C6         -23.0470    -4.6190    26.9060 ca         1 EAF      -0.051000
      8 C7         -19.6310    -8.5540    24.5660 ca         1 EAF      -0.057000
      9 C8         -28.4240    -7.6130    24.8080 ca         1 EAF      -0.166000
     10 N1         -18.8280    -6.6170    22.7460 nb         1 EAF      -0.666000
     11 N2         -25.2960    -8.7100    27.4930 nc         1 EAF      -0.574800
     12 N3         -24.1520    -8.9260    28.1250 na         1 EAF       0.066800
     13 N4         -21.4250    -7.2310    26.5990 n          1 EAF      -0.415800
     14 C9         -22.6110    -3.2360    24.5380 ca         1 EAF      -0.178500
     15 C10        -23.1460    -3.2440    26.8860 ca         1 EAF      -0.178500
     16 C11        -18.8150    -7.9030    22.4240 ca         1 EAF       0.338900
     17 C12        -19.2410    -6.2890    23.9650 ca         1 EAF       0.341900
     18 C13        -26.1270    -7.4910    25.5660 ca         1 EAF      -0.235500
     19 C14        -22.7300    -5.3300    25.7490 ca         1 EAF      -0.152300
     20 C15        -23.6770    -7.5760    26.4700 cd         1 EAF      -0.194300
     21 C16        -19.6500    -7.2100    24.9210 ca         1 EAF      -0.164300
     22 C17        -27.4310    -8.0040    25.7070 ca         1 EAF       0.189100
     23 C18        -22.9270    -2.5360    25.6980 ca         1 EAF       0.161100
     24 C19        -25.0500    -7.8900    26.4690 cd         1 EAF       0.379500
     25 C20        -23.1620    -8.2560    27.5310 cc         1 EAF      -0.227600
     26 C21        -21.7090    -8.0580    27.6440 c          1 EAF       0.612600
     27 C22        -22.5790    -6.8310    25.7810 c5         1 EAF       0.254300
     28 C25        -22.8120    -0.4170    24.6130 c3         1 EAF       0.163600
     29 H1         -27.0080    -9.0590    27.2410 ho         1 EAF       0.506000
     30 H2         -26.6320    -5.5140    22.8420 ha         1 EAF       0.116000
     31 H3         -28.9290    -6.4350    23.1020 ha         1 EAF       0.114000
     32 H5         -24.8750    -6.1930    24.4030 ha         1 EAF       0.115000
     33 H6         -22.2630    -5.1560    23.6680 ha         1 EAF       0.118500
     34 H7         -23.2200    -5.1440    27.8380 ha         1 EAF       0.118500
     35 H8         -19.9440    -9.3150    25.2720 ha         1 EAF       0.127000
     36 H9         -29.4220    -8.0180    24.9250 ha         1 EAF       0.129000
     37 H11        -22.4360    -2.7290    23.5990 ha         1 EAF       0.126000
     38 H12        -23.3940    -2.7000    27.7890 ha         1 EAF       0.126000
     39 H13        -18.4780    -8.1510    21.4230 h4         1 EAF       0.020100
     40 H14        -19.2530    -5.2290    24.2020 h4         1 EAF       0.020100
     41 H15        -22.4410    -7.1970    24.7570 h1         1 EAF       0.079700
     42 H16        -22.7720     1.6600    24.1190 hc         1 EAF       0.048367
     43 H17        -23.9410     1.2620    25.3750 hc         1 EAF       0.048367
     44 H18        -22.2130     1.3180    25.7540 hc         1 EAF       0.048367
     45 H21        -23.5380    -0.6750    23.8350 h1         1 EAF       0.035200
     46 H22        -21.8120    -0.6170    24.2130 h1         1 EAF       0.035200
     47 H10        -24.1220    -9.5310    28.9320 hn         1 EAF       0.395000
     48 C24        -20.0990    -6.7610    26.2850 c3         1 EAF       0.158300
     49 O2         -20.9310    -8.5130    28.4580 o          1 EAF      -0.532000
     50 O3         -23.0410    -1.2000    25.7770 os         1 EAF      -0.346100
     51 H4         -19.1790    -9.9440    22.9850 ha         1 EAF       0.127000
     52 C23        -22.9440     1.0380    24.9970 c3         1 EAF      -0.095100
     53 H19        -19.4230    -7.1400    27.0510 h1         1 EAF       0.072200
     54 H20        -20.0670    -5.6690    26.3450 h1         1 EAF       0.072200
@<TRIPOS>BOND
     1     1    22 1   
     2     1    29 1   
     3     2     3 ar  
     4     2     5 ar  
     5     2    30 1   
     6     3     9 ar  
     7     3    31 1   
     8     4     8 ar  
     9     4    16 ar  
    10     4    51 1   
    11     5    18 ar  
    12     5    32 1   
    13     6    14 ar  
    14     6    19 ar  
    15     6    33 1   
    16     7    15 ar  
    17     7    19 ar  
    18     7    34 1   
    19     8    21 ar  
    20     8    35 1   
    21     9    22 ar  
    22     9    36 1   
    23    10    16 ar  
    24    10    17 ar  
    25    11    12 1   
    26    11    24 2   
    27    12    25 1   
    28    12    47 1   
    29    13    26 1   
    30    13    27 1   
    31    13    48 1   
    32    14    23 ar  
    33    14    37 1   
    34    15    23 ar  
    35    15    38 1   
    36    16    39 1   
    37    17    21 ar  
    38    17    40 1   
    39    18    22 ar  
    40    18    24 1   
    41    19    27 1   
    42    20    24 1   
    43    20    25 2   
    44    20    27 1   
    45    21    48 1   
    46    23    50 1   
    47    25    26 1   
    48    26    49 2   
    49    27    41 1   
    50    28    45 1   
    51    28    46 1   
    52    28    50 1   
    53    28    52 1   
    54    42    52 1   
    55    43    52 1   
    56    44    52 1   
    57    48    53 1   
    58    48    54 1   
@<TRIPOS>SUBSTRUCTURE
     1 EAF         1 TEMP              0 ****  ****    0 ROOT
