@<TRIPOS>MOLECULE
EAF
   54    58     1     0     0
SMALL
No Charge or Current Charge


@<TRIPOS>ATOM
      1 O1         -27.9290    -7.2790    27.1580 oh         1 EAF      -0.548100
      2 C1         -26.4560    -6.7670    23.3010 ca         1 EAF      -0.162000
      3 C2         -27.7930    -6.4600    23.5920 ca         1 EAF      -0.057000
      4 C3         -19.3770    -7.5040    22.7640 ca         1 EAF      -0.165000
      5 C4         -25.6000    -7.2370    24.3110 ca         1 EAF      -0.046000
      6 C5         -22.6460    -5.2570    24.5150 ca         1 EAF      -0.051000
      7 C6         -22.7520    -5.0470    26.9320 ca         1 EAF      -0.051000
      8 C7         -19.6650    -7.9570    24.0610 ca         1 EAF      -0.057000
      9 C8         -28.2740    -6.6380    24.8970 ca         1 EAF      -0.166000
     10 N1         -19.0600    -5.2400    23.5660 nb         1 EAF      -0.666000
     11 N2         -25.5780    -8.4520    27.8150 nc         1 EAF      -0.574800
     12 N3         -24.4050    -8.7550    28.5260 na         1 EAF       0.066800
     13 N4         -21.3870    -7.7180    26.7870 n          1 EAF      -0.415800
     14 C9         -22.7450    -3.8620    24.3860 ca         1 EAF      -0.178500
     15 C10        -22.8500    -3.6510    26.8030 ca         1 EAF      -0.178500
     16 C11        -19.0800    -6.1450    22.5620 ca         1 EAF       0.338900
     17 C12        -19.3460    -5.6780    24.8150 ca         1 EAF       0.341900
     18 C13        -26.0640    -7.3970    25.6370 ca         1 EAF      -0.235500
     19 C14        -22.6490    -5.8660    25.7870 ca         1 EAF      -0.152300
     20 C15        -23.7330    -7.8510    26.6820 cd         1 EAF      -0.194300
     21 C16        -19.6500    -7.0220    25.1100 ca         1 EAF      -0.164300
     22 C17        -27.4230    -7.1100    25.9080 ca         1 EAF       0.189100
     23 C18        -22.8470    -3.0510    25.5360 ca         1 EAF       0.161100
     24 C19        -25.1410    -7.9010    26.6790 cd         1 EAF       0.379500
     25 C20        -23.2720    -8.3720    27.8280 cc         1 EAF      -0.227600
     26 C21        -21.8220    -8.3310    27.9700 c          1 EAF       0.612600
     27 C22        -22.5330    -7.3880    25.8930 c5         1 EAF       0.254300
     28 C25        -22.9470    -0.9670    24.2220 c3         1 EAF       0.163600
     29 H1         -27.2050    -7.7220    27.6710 ho         1 EAF       0.506000
     30 H2         -26.0800    -6.6440    22.2870 ha         1 EAF       0.116000
     31 H3         -28.4540    -6.0960    22.8080 ha         1 EAF       0.114000
     32 H5         -24.5760    -7.4840    24.0500 ha         1 EAF       0.115000
     33 H6         -22.5600    -5.8690    23.6200 ha         1 EAF       0.118500
     34 H7         -22.7550    -5.4900    27.9250 ha         1 EAF       0.118500
     35 H8         -19.8970    -9.0050    24.2450 ha         1 EAF       0.127000
     36 H9         -29.3130    -6.4120    25.1250 ha         1 EAF       0.129000
     37 H11        -22.7360    -3.4300    23.3900 ha         1 EAF       0.126000
     38 H12        -22.9280    -3.0310    27.6910 ha         1 EAF       0.126000
     39 H13        -18.8510    -5.7700    21.5650 h4         1 EAF       0.020100
     40 H14        -19.3310    -4.9250    25.6030 h4         1 EAF       0.020100
     41 H15        -22.4700    -7.8980    24.9210 h1         1 EAF       0.079700
     42 H16        -23.0750     1.1160    23.6120 hc         1 EAF       0.048367
     43 H17        -23.9990     0.7380    25.0820 hc         1 EAF       0.048367
     44 H18        -22.2230     0.8670    25.1520 hc         1 EAF       0.048367
     45 H21        -23.7960    -1.2780    23.5990 h1         1 EAF       0.035200
     46 H22        -22.0170    -1.1490    23.6690 h1         1 EAF       0.035200
     47 H10        -24.4290    -9.1910    29.4490 hn         1 EAF       0.395000
     48 C24        -19.9610    -7.4460    26.5380 c3         1 EAF       0.158300
     49 O2         -21.1310    -8.7170    28.9010 o          1 EAF      -0.532000
     50 O3         -22.9450    -1.6760    25.4720 os         1 EAF      -0.346100
     51 H4         -19.3790    -8.1900    21.9220 ha         1 EAF       0.127000
     52 C23        -23.0690     0.5320    24.5390 c3         1 EAF      -0.095100
     53 H19        -19.3840    -8.3510    26.7710 h1         1 EAF       0.072200
     54 H20        -19.6320    -6.6630    27.2330 h1         1 EAF       0.072200
@<TRIPOS>BOND
     1     1    22 1   
     2     1    29 1   
     3     2     3 ar  
     4     2     5 ar  
     5     2    30 1   
     6     3     9 ar  
     7     3    31 1   
     8     4     8 ar  
     9     4    16 ar  
    10     4    51 1   
    11     5    18 ar  
    12     5    32 1   
    13     6    14 ar  
    14     6    19 ar  
    15     6    33 1   
    16     7    15 ar  
    17     7    19 ar  
    18     7    34 1   
    19     8    21 ar  
    20     8    35 1   
    21     9    22 ar  
    22     9    36 1   
    23    10    16 ar  
    24    10    17 ar  
    25    11    12 1   
    26    11    24 2   
    27    12    25 1   
    28    12    47 1   
    29    13    26 1   
    30    13    27 1   
    31    13    48 1   
    32    14    23 ar  
    33    14    37 1   
    34    15    23 ar  
    35    15    38 1   
    36    16    39 1   
    37    17    21 ar  
    38    17    40 1   
    39    18    22 ar  
    40    18    24 1   
    41    19    27 1   
    42    20    24 1   
    43    20    25 2   
    44    20    27 1   
    45    21    48 1   
    46    23    50 1   
    47    25    26 1   
    48    26    49 2   
    49    27    41 1   
    50    28    45 1   
    51    28    46 1   
    52    28    50 1   
    53    28    52 1   
    54    42    52 1   
    55    43    52 1   
    56    44    52 1   
    57    48    53 1   
    58    48    54 1   
@<TRIPOS>SUBSTRUCTURE
     1 EAF         1 TEMP              0 ****  ****    0 ROOT
