@<TRIPOS>MOLECULE
EAH
   54    53     1     0     0
SMALL
No Charge or Current Charge


@<TRIPOS>ATOM
      1 O1           9.4310     1.4670    -0.0530 o          1 EAH      -0.741000
      2 C1           8.4190     2.0010    -0.4800 c          1 EAH       0.717000
      3 O2           8.1210     3.1640    -0.2530 o          1 EAH      -0.741000
      4 C2           7.4350     1.1450    -1.2980 c3         1 EAH      -0.205400
      5 C3           6.4080     0.4660    -0.3580 c3         1 EAH      -0.051400
      6 C4           5.3820    -0.4140    -1.1140 c3         1 EAH      -0.111400
      7 C5           4.3100    -1.0630    -0.2030 c3         1 EAH       0.168300
      8 O3           4.9450    -1.9680     0.7090 oh         1 EAH      -0.654000
      9 C6           3.2360    -1.8280    -1.0140 c3         1 EAH      -0.088200
     10 C7           2.1090    -2.3660    -0.1510 c2         1 EAH      -0.162200
     11 C8           0.8610    -1.8570    -0.0850 ce         1 EAH      -0.223000
     12 C9          -0.1940    -2.4120     0.7680 ce         1 EAH      -0.144000
     13 C10         -1.4550    -1.9130     0.8480 cf         1 EAH      -0.206000
     14 C11         -2.5070    -2.4640     1.6950 cf         1 EAH      -0.168000
     15 C12         -3.7700    -1.9820     1.7900 c2         1 EAH      -0.220200
     16 C13         -4.3580    -0.7910     1.0590 c3         1 EAH      -0.010000
     17 C14         -4.7440    -1.1600    -0.3620 c2         1 EAH      -0.205200
     18 C15         -5.8820    -0.8460    -1.0080 c2         1 EAH      -0.227200
     19 C16         -7.0620    -0.0640    -0.4600 c3         1 EAH      -0.040200
     20 C17         -6.8680     1.4600    -0.6050 c3         1 EAH      -0.074400
     21 C18         -8.0560     2.2780    -0.0540 c3         1 EAH      -0.076400
     22 C19         -7.8580     3.8030    -0.1990 c3         1 EAH      -0.075400
     23 C20         -9.0430     4.6200     0.3520 c3         1 EAH      -0.088100
     24 H2           6.8480     1.7780    -1.9770 hc         1 EAH       0.013200
     25 H2A          7.9650     0.3280    -1.8050 hc         1 EAH       0.013200
     26 H3           6.9480    -0.1470     0.3750 hc         1 EAH       0.046700
     27 H3A          5.8720     1.2380     0.2070 hc         1 EAH       0.046700
     28 H4           4.8740     0.2100    -1.8610 hc         1 EAH       0.028700
     29 H4A          5.9130    -1.1960    -1.6700 hc         1 EAH       0.028700
     30 H5           3.8030    -0.2610     0.3540 h1         1 EAH       0.073700
     31 HO3          5.4360    -2.6190     0.1630 ho         1 EAH       0.433000
     32 H6           2.8250    -1.1560    -1.7770 hc         1 EAH       0.047200
     33 H6A          3.7110    -2.6520    -1.5610 hc         1 EAH       0.047200
     34 H7           2.3840    -3.2360     0.4500 ha         1 EAH       0.176000
     35 H8           0.5960    -0.9850    -0.6870 ha         1 EAH       0.168000
     36 H9           0.0660    -3.2830     1.3750 ha         1 EAH       0.167000
     37 H10         -1.7020    -1.0430     0.2360 ha         1 EAH       0.170000
     38 H11         -2.2420    -3.3380     2.2950 ha         1 EAH       0.167000
     39 H12         -4.4730    -2.4820     2.4580 ha         1 EAH       0.164000
     40 H13         -5.2180    -0.4080     1.6200 hc         1 EAH       0.051700
     41 H13A        -3.6340     0.0330     1.0410 hc         1 EAH       0.051700
     42 H14         -3.9780    -1.7370    -0.8840 ha         1 EAH       0.170000
     43 H15         -6.0200    -1.1770    -2.0400 ha         1 EAH       0.162000
     44 H16         -7.9770    -0.3640    -0.9860 hc         1 EAH       0.043700
     45 H16A        -7.2310    -0.3070     0.5950 hc         1 EAH       0.043700
     46 H17         -5.9520     1.7560    -0.0800 hc         1 EAH       0.038700
     47 H17A        -6.7210     1.7030    -1.6650 hc         1 EAH       0.038700
     48 H18         -8.9730     1.9830    -0.5800 hc         1 EAH       0.037200
     49 H18A        -8.2010     2.0330     1.0060 hc         1 EAH       0.037200
     50 H19         -6.9440     4.1030     0.3280 hc         1 EAH       0.036200
     51 H19A        -7.7150     4.0530    -1.2570 hc         1 EAH       0.036200
     52 H20         -9.9680     4.3690    -0.1800 hc         1 EAH       0.030367
     53 H20A        -9.1900     4.4190     1.4200 hc         1 EAH       0.030367
     54 H20B        -8.8570     5.6940     0.2270 hc         1 EAH       0.030367
@<TRIPOS>BOND
     1     1     2 1   
     2     2     3 1   
     3     2     4 1   
     4     4     5 1   
     5     4    24 1   
     6     4    25 1   
     7     5     6 1   
     8     5    26 1   
     9     5    27 1   
    10     6     7 1   
    11     6    28 1   
    12     6    29 1   
    13     7     8 1   
    14     7     9 1   
    15     7    30 1   
    16     8    31 1   
    17     9    10 1   
    18     9    32 1   
    19     9    33 1   
    20    10    11 2   
    21    10    34 1   
    22    11    12 1   
    23    11    35 1   
    24    12    13 2   
    25    12    36 1   
    26    13    14 1   
    27    13    37 1   
    28    14    15 2   
    29    14    38 1   
    30    15    16 1   
    31    15    39 1   
    32    16    17 1   
    33    16    40 1   
    34    16    41 1   
    35    17    18 2   
    36    17    42 1   
    37    18    19 1   
    38    18    43 1   
    39    19    20 1   
    40    19    44 1   
    41    19    45 1   
    42    20    21 1   
    43    20    46 1   
    44    20    47 1   
    45    21    22 1   
    46    21    48 1   
    47    21    49 1   
    48    22    23 1   
    49    22    50 1   
    50    22    51 1   
    51    23    52 1   
    52    23    53 1   
    53    23    54 1   
@<TRIPOS>SUBSTRUCTURE
     1 EAH         1 TEMP              0 ****  ****    0 ROOT
