@<TRIPOS>MOLECULE
EAH
   54    53     1     0     0
SMALL
abcg2


@<TRIPOS>ATOM
      1 O1           9.6850     0.3060     1.1850 o          1 EAH      -0.741000
      2 C1           9.5660     0.8360     0.0620 c          1 EAH       0.717000
      3 O2          10.4100     1.5650    -0.5020 o          1 EAH      -0.741000
      4 C2           8.2720     0.5710    -0.7270 c3         1 EAH      -0.205400
      5 C3           7.1940    -0.2180    -0.0020 c3         1 EAH      -0.051400
      6 C4           5.9680    -0.4490    -0.8770 c3         1 EAH      -0.111400
      7 C5           4.8270    -1.1760    -0.1750 c3         1 EAH       0.168300
      8 O3           5.2300    -2.4230     0.3560 oh         1 EAH      -0.654000
      9 C6           3.6170    -1.3330    -1.1050 c3         1 EAH      -0.088200
     10 C7           2.4370    -1.9460    -0.4280 c2         1 EAH      -0.162200
     11 C8           1.2290    -1.3740    -0.3530 ce         1 EAH      -0.223000
     12 C9           0.0960    -1.9590     0.3310 ce         1 EAH      -0.144000
     13 C10         -1.1240    -1.3950     0.3730 cf         1 EAH      -0.206000
     14 C11         -2.2450    -1.9760     1.0820 cf         1 EAH      -0.168000
     15 C12         -3.4940    -1.4910     1.1340 c2         1 EAH      -0.220200
     16 C13         -4.0270    -0.2790     0.4290 c3         1 EAH      -0.010000
     17 C14         -4.9650    -0.7050    -0.6660 c2         1 EAH      -0.205200
     18 C15         -6.2740    -0.4710    -0.7520 c2         1 EAH      -0.227200
     19 C16         -7.1330     0.3240     0.1800 c3         1 EAH      -0.040200
     20 C17         -7.9040     1.4180    -0.5600 c3         1 EAH      -0.074400
     21 C18         -8.7760     2.2650     0.3600 c3         1 EAH      -0.076400
     22 C19         -9.6000     3.3030    -0.3920 c3         1 EAH      -0.075400
     23 C20        -10.4440     4.1730     0.5300 c3         1 EAH      -0.088100
     24 H2           7.8660     1.5350    -1.0560 hc         1 EAH       0.013200
     25 H2A          8.5430     0.0510    -1.6540 hc         1 EAH       0.013200
     26 H3           7.5990    -1.1770     0.3290 hc         1 EAH       0.046700
     27 H3A          6.8940     0.3140     0.9070 hc         1 EAH       0.046700
     28 H4           5.5890     0.5140    -1.2350 hc         1 EAH       0.028700
     29 H4A          6.2530    -1.0100    -1.7770 hc         1 EAH       0.028700
     30 H5           4.5170    -0.5810     0.6920 h1         1 EAH       0.073700
     31 HO3          5.5870    -2.9520    -0.3660 ho         1 EAH       0.433000
     32 H6           3.3450    -0.3550    -1.5100 hc         1 EAH       0.047200
     33 H6A          3.9210    -1.9500    -1.9610 hc         1 EAH       0.047200
     34 H7           2.5870    -2.9150     0.0390 ha         1 EAH       0.176000
     35 H8           1.0670    -0.4060    -0.8240 ha         1 EAH       0.168000
     36 H9           0.2630    -2.9060     0.8390 ha         1 EAH       0.167000
     37 H10         -1.2770    -0.4550    -0.1470 ha         1 EAH       0.170000
     38 H11         -2.0360    -2.8930     1.6260 ha         1 EAH       0.167000
     39 H12         -4.2260    -2.0450     1.7130 ha         1 EAH       0.164000
     40 H13         -4.5370     0.3620     1.1500 hc         1 EAH       0.051700
     41 H13A        -3.2160     0.3140     0.0010 hc         1 EAH       0.051700
     42 H14         -4.5030    -1.2950    -1.4520 ha         1 EAH       0.170000
     43 H15         -6.7940    -0.8820    -1.6140 ha         1 EAH       0.162000
     44 H16         -7.8540    -0.3440     0.6650 hc         1 EAH       0.043700
     45 H16A        -6.5410     0.7680     0.9840 hc         1 EAH       0.043700
     46 H17         -7.1970     2.0650    -1.0890 hc         1 EAH       0.038700
     47 H17A        -8.5300     0.9570    -1.3310 hc         1 EAH       0.038700
     48 H18         -9.4470     1.6120     0.9280 hc         1 EAH       0.037200
     49 H18A        -8.1420     2.7670     1.0990 hc         1 EAH       0.037200
     50 H19         -8.9330     3.9370    -0.9830 hc         1 EAH       0.036200
     51 H19A       -10.2500     2.7940    -1.1110 hc         1 EAH       0.036200
     52 H20        -11.1290     3.5680     1.1270 hc         1 EAH       0.030367
     53 H20A        -9.8160     4.7370     1.2220 hc         1 EAH       0.030367
     54 H20B       -11.0420     4.8910    -0.0320 hc         1 EAH       0.030367
@<TRIPOS>BOND
     1     1     2 1   
     2     2     3 1   
     3     2     4 1   
     4     4     5 1   
     5     4    24 1   
     6     4    25 1   
     7     5     6 1   
     8     5    26 1   
     9     5    27 1   
    10     6     7 1   
    11     6    28 1   
    12     6    29 1   
    13     7     8 1   
    14     7     9 1   
    15     7    30 1   
    16     8    31 1   
    17     9    10 1   
    18     9    32 1   
    19     9    33 1   
    20    10    11 2   
    21    10    34 1   
    22    11    12 1   
    23    11    35 1   
    24    12    13 2   
    25    12    36 1   
    26    13    14 1   
    27    13    37 1   
    28    14    15 2   
    29    14    38 1   
    30    15    16 1   
    31    15    39 1   
    32    16    17 1   
    33    16    40 1   
    34    16    41 1   
    35    17    18 2   
    36    17    42 1   
    37    18    19 1   
    38    18    43 1   
    39    19    20 1   
    40    19    44 1   
    41    19    45 1   
    42    20    21 1   
    43    20    46 1   
    44    20    47 1   
    45    21    22 1   
    46    21    48 1   
    47    21    49 1   
    48    22    23 1   
    49    22    50 1   
    50    22    51 1   
    51    23    52 1   
    52    23    53 1   
    53    23    54 1   
@<TRIPOS>SUBSTRUCTURE
     1 EAH         1 TEMP              0 ****  ****    0 ROOT
