@<TRIPOS>MOLECULE
EAI
   42    43     1     0     0
SMALL
abcg2


@<TRIPOS>ATOM
      1 C3         -22.3910   -31.8210    20.3780 c6         1 EAI      -0.049400
      2 C2         -23.6100   -31.1500    19.7340 c6         1 EAI      -0.237700
      3 C16        -23.2260   -30.0090    18.8230 c          1 EAI       0.615100
      4 C17        -24.1020   -28.4970    17.2210 c3         1 EAI       0.215900
      5 C18        -25.4810   -28.0630    16.8240 ca         1 EAI      -0.100300
      6 C19        -26.3420   -27.5220    17.7780 ca         1 EAI      -0.085500
      7 C20        -27.6200   -27.1190    17.4240 ca         1 EAI      -0.116500
      8 C21        -28.0530   -27.2500    16.1090 ca         1 EAI      -0.100000
      9 C22        -27.2010   -27.7860    15.1540 ca         1 EAI      -0.116500
     10 C23        -25.9210   -28.1920    15.5130 ca         1 EAI      -0.085500
     11 C1         -24.5520   -30.6550    20.8200 c          1 EAI       0.586100
     12 C6         -24.9670   -31.7240    21.7910 c6         1 EAI      -0.183400
     13 C5         -23.7290   -32.3760    22.4150 c6         1 EAI      -0.060400
     14 C4         -22.7580   -32.9310    21.3670 c6         1 EAI      -0.102000
     15 C7         -21.4780   -33.4190    22.0620 c3         1 EAI      -0.086100
     16 C14        -23.3440   -34.1270    20.6260 c          1 EAI       0.590100
     17 C15        -24.4250   -36.2030    20.8900 c3         1 EAI       0.149900
     18 O3         -24.2410   -29.6660    18.0440 os         1 EAI      -0.437100
     19 O2         -22.1480   -29.4730    18.8070 o          1 EAI      -0.484000
     20 O4         -24.8910   -29.5000    20.9120 o          1 EAI      -0.503100
     21 O          -23.8940   -35.0040    21.4530 os         1 EAI      -0.442100
     22 O1         -23.2810   -34.2970    19.4340 o          1 EAI      -0.485000
     23 H1         -21.7350   -32.2080    19.5970 hc         1 EAI       0.073200
     24 H2         -21.8170   -31.0690    20.9240 hc         1 EAI       0.073200
     25 H3         -24.1640   -31.8890    19.1450 hc         1 EAI       0.110700
     26 H4         -23.4940   -28.7360    16.3460 h1         1 EAI       0.057700
     27 H5         -23.5960   -27.7080    17.7810 h1         1 EAI       0.057700
     28 H6         -26.0090   -27.4120    18.8040 ha         1 EAI       0.119000
     29 H7         -28.2790   -26.7000    18.1730 ha         1 EAI       0.113500
     30 H8         -29.0500   -26.9330    15.8330 ha         1 EAI       0.112000
     31 H9         -27.5320   -27.8900    14.1290 ha         1 EAI       0.113500
     32 H10        -25.2600   -28.6110    14.7640 ha         1 EAI       0.119000
     33 H11        -25.6050   -31.2940    22.5630 hc         1 EAI       0.073200
     34 H12        -25.5590   -32.4720    21.2520 hc         1 EAI       0.073200
     35 H13        -24.0350   -33.1500    23.1170 hc         1 EAI       0.061700
     36 H14        -23.1920   -31.6250    23.0020 hc         1 EAI       0.061700
     37 H15        -21.6920   -34.1810    22.8110 hc         1 EAI       0.049367
     38 H16        -20.7680   -33.8340    21.3450 hc         1 EAI       0.049367
     39 H17        -20.9940   -32.5810    22.5640 hc         1 EAI       0.049367
     40 H18        -24.8350   -36.7670    21.7230 h1         1 EAI       0.049700
     41 H19        -25.2170   -35.9890    20.1720 h1         1 EAI       0.049700
     42 H20        -23.6480   -36.7910    20.4030 h1         1 EAI       0.049700
@<TRIPOS>BOND
     1     1     2 1   
     2     1    14 1   
     3     1    23 1   
     4     1    24 1   
     5     2     3 1   
     6     2    11 1   
     7     2    25 1   
     8     3    18 1   
     9     3    19 2   
    10     4     5 1   
    11     4    18 1   
    12     4    26 1   
    13     4    27 1   
    14     5     6 ar  
    15     5    10 ar  
    16     6     7 ar  
    17     6    28 1   
    18     7     8 ar  
    19     7    29 1   
    20     8     9 ar  
    21     8    30 1   
    22     9    10 ar  
    23     9    31 1   
    24    10    32 1   
    25    11    12 1   
    26    11    20 2   
    27    12    13 1   
    28    12    33 1   
    29    12    34 1   
    30    13    14 1   
    31    13    35 1   
    32    13    36 1   
    33    14    15 1   
    34    14    16 1   
    35    15    37 1   
    36    15    38 1   
    37    15    39 1   
    38    16    21 1   
    39    16    22 2   
    40    17    21 1   
    41    17    40 1   
    42    17    41 1   
    43    17    42 1   
@<TRIPOS>SUBSTRUCTURE
     1 EAI         1 TEMP              0 ****  ****    0 ROOT
