@<TRIPOS>MOLECULE
EAI
   42    43     1     0     0
SMALL
No Charge or Current Charge


@<TRIPOS>ATOM
      1 C3         -22.6930   -31.5220    20.4460 c6         1 EAI      -0.049400
      2 C2         -24.1320   -30.9130    20.3490 c6         1 EAI      -0.237700
      3 C16        -24.1470   -29.6230    19.5260 c          1 EAI       0.615100
      4 C17        -23.8180   -28.7310    17.2990 c3         1 EAI       0.215900
      5 C18        -25.2660   -28.3660    16.9830 ca         1 EAI      -0.100300
      6 C19        -25.7730   -27.0930    17.3140 ca         1 EAI      -0.085500
      7 C20        -27.1070   -26.7630    17.0200 ca         1 EAI      -0.116500
      8 C21        -27.9430   -27.7020    16.3920 ca         1 EAI      -0.100000
      9 C22        -27.4430   -28.9720    16.0590 ca         1 EAI      -0.116500
     10 C23        -26.1090   -29.3030    16.3520 ca         1 EAI      -0.085500
     11 C1         -24.8760   -30.9220    21.6880 c          1 EAI       0.586100
     12 C6         -24.7640   -32.2150    22.5000 c6         1 EAI      -0.183400
     13 C5         -23.3080   -32.7480    22.5850 c6         1 EAI      -0.060400
     14 C4         -22.5470   -32.8830    21.2200 c6         1 EAI      -0.102000
     15 C7         -21.0270   -33.1170    21.5240 c3         1 EAI      -0.086100
     16 C14        -23.0660   -34.1050    20.3720 c          1 EAI       0.590100
     17 C15        -24.9390   -35.1220    19.2330 c3         1 EAI       0.149900
     18 O3         -23.7950   -29.8390    18.2190 os         1 EAI      -0.437100
     19 O2         -24.3970   -28.5190    19.9880 o          1 EAI      -0.484000
     20 O4         -25.4980   -29.9640    22.1270 o          1 EAI      -0.503100
     21 O          -24.3880   -34.0440    20.0120 os         1 EAI      -0.442100
     22 O1         -22.3450   -35.0420    20.0520 o          1 EAI      -0.485000
     23 H1         -22.2700   -31.6420    19.4380 hc         1 EAI       0.073200
     24 H2         -22.0550   -30.7710    20.9340 hc         1 EAI       0.073200
     25 H3         -24.6140   -31.6610    19.7150 hc         1 EAI       0.110700
     26 H4         -23.3190   -29.0140    16.3640 h1         1 EAI       0.057700
     27 H5         -23.2780   -27.8660    17.7070 h1         1 EAI       0.057700
     28 H6         -25.1350   -26.3600    17.8040 ha         1 EAI       0.119000
     29 H7         -27.4940   -25.7800    17.2800 ha         1 EAI       0.113500
     30 H8         -28.9760   -27.4460    16.1650 ha         1 EAI       0.112000
     31 H9         -28.0890   -29.7000    15.5730 ha         1 EAI       0.113500
     32 H10        -25.7290   -30.2890    16.0920 ha         1 EAI       0.119000
     33 H11        -25.2070   -32.0710    23.4950 hc         1 EAI       0.073200
     34 H12        -25.3590   -32.9700    21.9760 hc         1 EAI       0.073200
     35 H13        -23.3080   -33.7180    23.1020 hc         1 EAI       0.061700
     36 H14        -22.7450   -32.0690    23.2420 hc         1 EAI       0.061700
     37 H15        -20.8670   -34.0420    22.0920 hc         1 EAI       0.049367
     38 H16        -20.4370   -33.1880    20.6020 hc         1 EAI       0.049367
     39 H17        -20.6010   -32.2980    22.1170 hc         1 EAI       0.049367
     40 H18        -25.9990   -34.9360    19.0220 h1         1 EAI       0.049700
     41 H19        -24.4140   -35.2200    18.2740 h1         1 EAI       0.049700
     42 H20        -24.8610   -36.0750    19.7730 h1         1 EAI       0.049700
@<TRIPOS>BOND
     1     1     2 1   
     2     1    14 1   
     3     1    23 1   
     4     1    24 1   
     5     2     3 1   
     6     2    11 1   
     7     2    25 1   
     8     3    18 1   
     9     3    19 2   
    10     4     5 1   
    11     4    18 1   
    12     4    26 1   
    13     4    27 1   
    14     5     6 ar  
    15     5    10 ar  
    16     6     7 ar  
    17     6    28 1   
    18     7     8 ar  
    19     7    29 1   
    20     8     9 ar  
    21     8    30 1   
    22     9    10 ar  
    23     9    31 1   
    24    10    32 1   
    25    11    12 1   
    26    11    20 2   
    27    12    13 1   
    28    12    33 1   
    29    12    34 1   
    30    13    14 1   
    31    13    35 1   
    32    13    36 1   
    33    14    15 1   
    34    14    16 1   
    35    15    37 1   
    36    15    38 1   
    37    15    39 1   
    38    16    21 1   
    39    16    22 2   
    40    17    21 1   
    41    17    40 1   
    42    17    41 1   
    43    17    42 1   
@<TRIPOS>SUBSTRUCTURE
     1 EAI         1 TEMP              0 ****  ****    0 ROOT
