@<TRIPOS>MOLECULE
EAJ
   28    29     1     0     0
SMALL
abcg2


@<TRIPOS>ATOM
      1 C           -3.6210    -0.6530    -0.5610 c          1 EAJ       0.713600
      2 O           -4.7360    -0.1220    -0.3970 o          1 EAJ      -0.722000
      3 C1          -2.4210     0.0900     0.0150 ca         1 EAJ      -0.141600
      4 C10          3.2600     2.2770    -1.2310 c3         1 EAJ       0.151900
      5 C11         -0.2090     1.4460     1.0560 ca         1 EAJ      -0.106000
      6 C12         -1.4830     1.9780     1.1870 ca         1 EAJ      -0.155000
      7 C13         -2.5830     1.3070     0.6690 ca         1 EAJ      -0.078000
      8 C2          -1.1380    -0.4350    -0.1070 ca         1 EAJ      -0.070000
      9 C3          -0.0220     0.2260     0.4040 cp         1 EAJ      -0.081000
     10 C4           1.3150    -0.4010     0.2950 cp         1 EAJ      -0.026000
     11 C5           1.4950    -1.7160     0.7110 ca         1 EAJ      -0.071000
     12 C6           2.7270    -2.3500     0.6240 ca         1 EAJ      -0.152000
     13 C7           3.8060    -1.6540     0.1060 ca         1 EAJ      -0.094000
     14 C8           3.6570    -0.3430    -0.3280 ca         1 EAJ      -0.211000
     15 C9           2.4180     0.2880    -0.2400 ca         1 EAJ       0.138100
     16 O1           2.1920     1.5460    -0.6630 os         1 EAJ      -0.322100
     17 O2          -3.3850    -1.7270    -1.1480 o          1 EAJ      -0.722000
     18 H5           3.6480     1.7970    -2.1330 h1         1 EAJ       0.031367
     19 H6           2.8590     3.2510    -1.4960 h1         1 EAJ       0.031367
     20 H7           4.0830     2.4160    -0.5250 h1         1 EAJ       0.031367
     21 H8           0.6360     1.9720     1.4790 ha         1 EAJ       0.088000
     22 H9          -1.6180     2.9210     1.7030 ha         1 EAJ       0.084000
     23 H10         -3.5730     1.7290     0.7770 ha         1 EAJ       0.125000
     24 H           -1.0050    -1.3770    -0.6230 ha         1 EAJ       0.128000
     25 H1           0.6470    -2.2480     1.1270 ha         1 EAJ       0.128000
     26 H2           2.8410    -3.3710     0.9620 ha         1 EAJ       0.105000
     27 H3           4.7780    -2.1260     0.0320 ha         1 EAJ       0.095000
     28 H4           4.5150     0.1710    -0.7390 ha         1 EAJ       0.102000
@<TRIPOS>BOND
     1     1     2 1   
     2     1     3 1   
     3     1    17 1   
     4     3     7 ar  
     5     3     8 ar  
     6     4    16 1   
     7     4    18 1   
     8     4    19 1   
     9     4    20 1   
    10     5     6 ar  
    11     5     9 ar  
    12     5    21 1   
    13     6     7 ar  
    14     6    22 1   
    15     7    23 1   
    16     8     9 ar  
    17     8    24 1   
    18     9    10 1   
    19    10    11 ar  
    20    10    15 ar  
    21    11    12 ar  
    22    11    25 1   
    23    12    13 ar  
    24    12    26 1   
    25    13    14 ar  
    26    13    27 1   
    27    14    15 ar  
    28    14    28 1   
    29    15    16 1   
@<TRIPOS>SUBSTRUCTURE
     1 EAJ         1 TEMP              0 ****  ****    0 ROOT
