@<TRIPOS>MOLECULE
EAJ
   28    29     1     0     0
SMALL
No Charge or Current Charge


@<TRIPOS>ATOM
      1 C           -3.7050    -0.6790    -0.4880 c          1 EAJ       0.713600
      2 O           -4.8050    -0.1570    -0.3780 o          1 EAJ      -0.722000
      3 C1          -2.4880     0.0700     0.0340 ca         1 EAJ      -0.141600
      4 C10          3.3140     2.3760    -1.2010 c3         1 EAJ       0.151900
      5 C11         -0.2220     1.4600     1.0040 ca         1 EAJ      -0.106000
      6 C12         -1.5000     2.0260     1.1230 ca         1 EAJ      -0.155000
      7 C13         -2.6260     1.3400     0.6410 ca         1 EAJ      -0.078000
      8 C2          -1.1920    -0.4870    -0.0780 ca         1 EAJ      -0.070000
      9 C3          -0.0430     0.1950     0.3950 cp         1 EAJ      -0.081000
     10 C4           1.3150    -0.4300     0.2780 cp         1 EAJ      -0.026000
     11 C5           1.4970    -1.7770     0.6800 ca         1 EAJ      -0.071000
     12 C6           2.7530    -2.4000     0.5930 ca         1 EAJ      -0.152000
     13 C7           3.8570    -1.6920     0.0980 ca         1 EAJ      -0.094000
     14 C8           3.7070    -0.3590    -0.3170 ca         1 EAJ      -0.211000
     15 C9           2.4450     0.2730    -0.2310 ca         1 EAJ       0.138100
     16 O1           2.2500     1.5740    -0.6620 os         1 EAJ      -0.322100
     17 O2          -3.5420    -1.7780    -0.9980 o          1 EAJ      -0.722000
     18 H5           3.7340     1.9110    -2.1020 h1         1 EAJ       0.031367
     19 H6           2.9390     3.3700    -1.4740 h1         1 EAJ       0.031367
     20 H7           4.1170     2.5050    -0.4630 h1         1 EAJ       0.031367
     21 H8           0.6370     1.9990     1.3950 ha         1 EAJ       0.088000
     22 H9          -1.6190     2.9990     1.5940 ha         1 EAJ       0.084000
     23 H10         -3.6070     1.7980     0.7440 ha         1 EAJ       0.125000
     24 H           -1.0650    -1.4600    -0.5460 ha         1 EAJ       0.128000
     25 H1           0.6540    -2.3380     1.0760 ha         1 EAJ       0.128000
     26 H2           2.8700    -3.4330     0.9130 ha         1 EAJ       0.105000
     27 H3           4.8290    -2.1770     0.0310 ha         1 EAJ       0.095000
     28 H4           4.5770     0.1630    -0.7050 ha         1 EAJ       0.102000
@<TRIPOS>BOND
     1     1     2 1   
     2     1     3 1   
     3     1    17 1   
     4     3     7 ar  
     5     3     8 ar  
     6     4    16 1   
     7     4    18 1   
     8     4    19 1   
     9     4    20 1   
    10     5     6 ar  
    11     5     9 ar  
    12     5    21 1   
    13     6     7 ar  
    14     6    22 1   
    15     7    23 1   
    16     8     9 ar  
    17     8    24 1   
    18     9    10 1   
    19    10    11 ar  
    20    10    15 ar  
    21    11    12 ar  
    22    11    25 1   
    23    12    13 ar  
    24    12    26 1   
    25    13    14 ar  
    26    13    27 1   
    27    14    15 ar  
    28    14    28 1   
    29    15    16 1   
@<TRIPOS>SUBSTRUCTURE
     1 EAJ         1 TEMP              0 ****  ****    0 ROOT
