@<TRIPOS>MOLECULE
EAL
   47    48     1     0     0
SMALL
abcg2


@<TRIPOS>ATOM
      1 O4          -3.0530     0.3290    -4.5770 o          1 EAL      -0.737000
      2 O5          -1.2730    -1.0190    -4.5270 o          1 EAL      -0.737000
      3 N2           0.0890     0.7790    -2.9290 n          1 EAL      -0.378800
      4 C5          -1.0200     1.2210    -3.7640 c5         1 EAL      -0.024300
      5 C6          -0.3210     1.9650    -4.9120 c5         1 EAL      -0.078400
      6 C7           1.0180     2.3900    -4.3220 c5         1 EAL      -0.098400
      7 C8           1.3840     1.2090    -3.4360 c5         1 EAL       0.111000
      8 C9          -1.8630     0.0540    -4.3190 c          1 EAL       0.729000
      9 H5          -1.6600     1.9090    -3.2020 h1         1 EAL       0.046700
     10 H61         -0.9140     2.7990    -5.2830 hc         1 EAL       0.034200
     11 H62         -0.1470     1.2840    -5.7490 hc         1 EAL       0.034200
     12 H71          0.9030     3.2910    -3.7140 hc         1 EAL       0.026200
     13 H72          1.7780     2.5900    -5.0780 hc         1 EAL       0.026200
     14 H8C1         2.0580     1.4940    -2.6280 h1         1 EAL       0.041200
     15 H8C2         1.8690     0.4180    -4.0190 h1         1 EAL       0.041200
     16 O1          -1.2760    -0.2290    -1.4610 o          1 EAL      -0.641100
     17 C2           1.0520    -0.7080    -1.2080 c3         1 EAL       0.102500
     18 C10          1.1180    -2.1220    -1.7800 c3         1 EAL      -0.076100
     19 HA           1.9890    -0.2100    -1.4510 h1         1 EAL       0.087700
     20 H101         0.2220    -2.6890    -1.5220 hc         1 EAL       0.031033
     21 H102         1.1920    -2.1020    -2.8680 hc         1 EAL       0.031033
     22 H103         1.9860    -2.6480    -1.3830 hc         1 EAL       0.031033
     23 N1           0.9380    -0.7540     0.2330 n7         1 EAL      -0.825400
     24 C3           2.3810     1.2220     0.7630 c          1 EAL       0.719000
     25 C4           0.9890     0.5510     0.8690 c3         1 EAL       0.033500
     26 O2           3.3720     0.5020     0.5460 o          1 EAL      -0.736500
     27 O3           2.3860     2.4570     0.9490 o          1 EAL      -0.736500
     28 C14          0.6360     0.4280     2.3530 c3         1 EAL      -0.053400
     29 C15         -0.7910    -0.0610     2.6260 c3         1 EAL      -0.053100
     30 C16         -1.1170    -0.0230     4.0930 ca         1 EAL      -0.037300
     31 C17         -1.8160     1.0460     4.6490 ca         1 EAL      -0.110500
     32 C18         -2.0810     1.0940     6.0130 ca         1 EAL      -0.121500
     33 C19         -1.6490     0.0710     6.8450 ca         1 EAL      -0.142000
     34 C20         -0.9500    -1.0010     6.3020 ca         1 EAL      -0.121500
     35 C21         -0.6890    -1.0450     4.9400 ca         1 EAL      -0.110500
     36 H1           0.0470    -1.1870     0.4490 hn         1 EAL       0.384000
     37 HB           0.2630     1.2540     0.4260 h1         1 EAL       0.024700
     38 H141         1.3500    -0.2430     2.8420 hc         1 EAL       0.043700
     39 H142         0.7610     1.4110     2.8110 hc         1 EAL       0.043700
     40 H151        -1.4970     0.5600     2.0680 hc         1 EAL       0.053700
     41 H152        -0.9210    -1.0850     2.2670 hc         1 EAL       0.053700
     42 H17         -2.1630     1.8490     4.0090 ha         1 EAL       0.116500
     43 H18         -2.6300     1.9320     6.4240 ha         1 EAL       0.092000
     44 H19         -1.8570     0.1050     7.9060 ha         1 EAL       0.088000
     45 H20         -0.6100    -1.8070     6.9410 ha         1 EAL       0.092000
     46 H21         -0.1500    -1.8900     4.5260 ha         1 EAL       0.116500
     47 C1          -0.1390    -0.0110    -1.8730 c          1 EAL       0.584100
@<TRIPOS>BOND
     1     1     8 1   
     2     2     8 1   
     3     3     4 1   
     4     3     7 1   
     5     3    47 1   
     6     4     5 1   
     7     4     8 1   
     8     4     9 1   
     9     5     6 1   
    10     5    10 1   
    11     5    11 1   
    12     6     7 1   
    13     6    12 1   
    14     6    13 1   
    15     7    14 1   
    16     7    15 1   
    17    16    47 2   
    18    17    18 1   
    19    17    19 1   
    20    17    23 1   
    21    17    47 1   
    22    18    20 1   
    23    18    21 1   
    24    18    22 1   
    25    23    25 1   
    26    23    36 1   
    27    24    25 1   
    28    24    26 1   
    29    24    27 1   
    30    25    28 1   
    31    25    37 1   
    32    28    29 1   
    33    28    38 1   
    34    28    39 1   
    35    29    30 1   
    36    29    40 1   
    37    29    41 1   
    38    30    31 ar  
    39    30    35 ar  
    40    31    32 ar  
    41    31    42 1   
    42    32    33 ar  
    43    32    43 1   
    44    33    34 ar  
    45    33    44 1   
    46    34    35 ar  
    47    34    45 1   
    48    35    46 1   
@<TRIPOS>SUBSTRUCTURE
     1 EAL         1 TEMP              0 ****  ****    0 ROOT
