@<TRIPOS>MOLECULE
EAL
   47    48     1     0     0
SMALL
No Charge or Current Charge


@<TRIPOS>ATOM
      1 O4          -3.3680     0.8010    -4.1990 o          1 EAL      -0.737000
      2 O5          -2.0300    -0.8350    -4.5100 o          1 EAL      -0.737000
      3 N2           0.0940     0.7930    -3.1750 n          1 EAL      -0.378800
      4 C5          -1.0180     1.3170    -4.0240 c5         1 EAL      -0.024300
      5 C6          -0.2830     1.5730    -5.3730 c5         1 EAL      -0.078400
      6 C7           1.1000     2.0640    -4.8860 c5         1 EAL      -0.098400
      7 C8           1.4290     1.0480    -3.7610 c5         1 EAL       0.111000
      8 C9          -2.2320     0.3480    -4.2650 c          1 EAL       0.729000
      9 H5          -1.3990     2.2560    -3.6010 h1         1 EAL       0.046700
     10 H61         -0.7990     2.3100    -5.9980 hc         1 EAL       0.034200
     11 H62         -0.1820     0.6550    -5.9640 hc         1 EAL       0.034200
     12 H71          1.0370     3.0840    -4.4890 hc         1 EAL       0.026200
     13 H72          1.8550     2.0670    -5.6800 hc         1 EAL       0.026200
     14 H8C1         2.1360     1.4750    -3.0380 h1         1 EAL       0.041200
     15 H8C2         1.8560     0.1220    -4.1690 h1         1 EAL       0.041200
     16 O1          -1.2300     0.2750    -1.3750 o          1 EAL      -0.641100
     17 C2           1.1010    -0.4610    -1.1590 c3         1 EAL       0.102500
     18 C10          1.3370    -1.8730    -1.7360 c3         1 EAL      -0.076100
     19 HA           1.9980     0.1270    -1.3860 h1         1 EAL       0.087700
     20 H101         0.4690    -2.5180    -1.5550 hc         1 EAL       0.031033
     21 H102         1.5070    -1.8290    -2.8180 hc         1 EAL       0.031033
     22 H103         2.2170    -2.3390    -1.2750 hc         1 EAL       0.031033
     23 N1           0.9570    -0.5660     0.3310 n7         1 EAL      -0.825400
     24 C3           2.4390     1.4850     0.9650 c          1 EAL       0.719000
     25 C4           1.0500     0.7280     1.0960 c3         1 EAL       0.033500
     26 O2           3.3720     1.1620     1.6930 o          1 EAL      -0.736500
     27 O3           2.5240     2.3920     0.1460 o          1 EAL      -0.736500
     28 C14          0.6710     0.4810     2.5810 c3         1 EAL      -0.053400
     29 C15         -0.8000     0.0560     2.7990 c3         1 EAL      -0.053100
     30 C16         -1.1430    -0.0820     4.2770 ca         1 EAL      -0.037300
     31 C17         -1.7200     0.9950     4.9780 ca         1 EAL      -0.110500
     32 C18         -2.0330     0.8670     6.3430 ca         1 EAL      -0.121500
     33 C19         -1.7690    -0.3380     7.0150 ca         1 EAL      -0.142000
     34 C20         -1.1910    -1.4150     6.3220 ca         1 EAL      -0.121500
     35 C21         -0.8790    -1.2870     4.9570 ca         1 EAL      -0.110500
     36 H1           0.0320    -0.9730     0.5140 hn         1 EAL       0.384000
     37 HB           0.2990     1.4240     0.6980 h1         1 EAL       0.024700
     38 H141         1.3380    -0.2760     3.0120 hc         1 EAL       0.043700
     39 H142         0.8460     1.4080     3.1420 hc         1 EAL       0.043700
     40 H151        -1.4610     0.7930     2.3270 hc         1 EAL       0.053700
     41 H152        -0.9890    -0.8960     2.2870 hc         1 EAL       0.053700
     42 H17         -1.9260     1.9320     4.4650 ha         1 EAL       0.116500
     43 H18         -2.4780     1.7020     6.8790 ha         1 EAL       0.092000
     44 H19         -2.0100    -0.4360     8.0710 ha         1 EAL       0.088000
     45 H20         -0.9850    -2.3480     6.8420 ha         1 EAL       0.092000
     46 H21         -0.4300    -2.1250     4.4280 ha         1 EAL       0.116500
     47 C1          -0.1130     0.2370    -1.8890 c          1 EAL       0.584100
@<TRIPOS>BOND
     1     1     8 1   
     2     2     8 1   
     3     3     4 1   
     4     3     7 1   
     5     3    47 1   
     6     4     5 1   
     7     4     8 1   
     8     4     9 1   
     9     5     6 1   
    10     5    10 1   
    11     5    11 1   
    12     6     7 1   
    13     6    12 1   
    14     6    13 1   
    15     7    14 1   
    16     7    15 1   
    17    16    47 2   
    18    17    18 1   
    19    17    19 1   
    20    17    23 1   
    21    17    47 1   
    22    18    20 1   
    23    18    21 1   
    24    18    22 1   
    25    23    25 1   
    26    23    36 1   
    27    24    25 1   
    28    24    26 1   
    29    24    27 1   
    30    25    28 1   
    31    25    37 1   
    32    28    29 1   
    33    28    38 1   
    34    28    39 1   
    35    29    30 1   
    36    29    40 1   
    37    29    41 1   
    38    30    31 ar  
    39    30    35 ar  
    40    31    32 ar  
    41    31    42 1   
    42    32    33 ar  
    43    32    43 1   
    44    33    34 ar  
    45    33    44 1   
    46    34    35 ar  
    47    34    45 1   
    48    35    46 1   
@<TRIPOS>SUBSTRUCTURE
     1 EAL         1 TEMP              0 ****  ****    0 ROOT
