@<TRIPOS>MOLECULE
EAM
   52    55     1     0     0
SMALL
No Charge or Current Charge


@<TRIPOS>ATOM
      1 Cl          30.0210    48.3590    -6.9540 cl         1 EAM      -0.206000
      2 C10         29.0180    49.0170    -5.6680 ca         1 EAM       0.136000
      3 C9          29.2500    48.6430    -4.3370 ca         1 EAM      -0.111000
      4 C8          28.4480    49.1660    -3.3070 ca         1 EAM      -0.067500
      5 C11         27.9780    49.9070    -5.9750 ca         1 EAM      -0.111000
      6 C12         27.1730    50.4320    -4.9490 ca         1 EAM      -0.067500
      7 C7          27.4120    50.0850    -3.5970 ca         1 EAM      -0.139900
      8 C6          26.5290    50.6090    -2.5000 ce         1 EAM       0.534500
      9 N2          25.3390    51.0480    -2.7990 n2         1 EAM      -0.575900
     10 C13         27.1100    50.7220    -1.1130 ca         1 EAM      -0.147900
     11 C19         26.4270    50.2750     0.0490 ca         1 EAM      -0.018200
     12 C18         27.0170    50.4570     1.3170 ca         1 EAM      -0.078000
     13 C17         28.2820    51.0520     1.4440 ca         1 EAM      -0.170000
     14 C15         28.9700    51.4890     0.2960 ca         1 EAM       0.141100
     15 O2          30.2130    52.0870     0.3560 os         1 EAM      -0.340100
     16 C16         30.9050    52.2980     1.5990 c3         1 EAM       0.146900
     17 C14         28.3780    51.3290    -0.9650 ca         1 EAM      -0.105000
     18 N3          25.1600    49.6930    -0.0460 na         1 EAM      -0.286800
     19 C22         24.1600    50.1670    -0.8420 cc         1 EAM       0.387800
     20 N5          23.1110    49.3660    -0.6960 nd         1 EAM      -0.343000
     21 N4          23.4580    48.3600     0.1910 nd         1 EAM      -0.360000
     22 C20         24.7130    48.5520     0.5720 cc         1 EAM       0.412800
     23 C21         25.5000    47.6330     1.4650 c3         1 EAM      -0.123400
     24 C5          24.3170    51.3530    -1.7770 c3         1 EAM       0.104200
     25 C4          23.0080    51.7690    -2.4880 c3         1 EAM      -0.130400
     26 C3          23.1900    53.0710    -3.2680 c          1 EAM       0.599100
     27 O1          23.2580    54.1600    -2.7160 o          1 EAM      -0.626100
     28 N1          23.2320    52.9350    -4.6390 ns         1 EAM      -0.500900
     29 C2          23.3660    54.0430    -5.5870 c3         1 EAM       0.102000
     30 C1          22.0320    54.7780    -5.8110 c3         1 EAM      -0.110100
     31 H9          30.0480    47.9430    -4.1030 ha         1 EAM       0.133000
     32 H8          28.6340    48.8460    -2.2840 ha         1 EAM       0.129500
     33 H11         27.7940    50.1880    -7.0090 ha         1 EAM       0.133000
     34 H12         26.3700    51.1190    -5.2100 ha         1 EAM       0.129500
     35 H18         26.4890    50.1510     2.2170 ha         1 EAM       0.129000
     36 H17         28.7040    51.1720     2.4380 ha         1 EAM       0.127000
     37 H16         31.8730    52.7830     1.4190 h1         1 EAM       0.047033
     38 H16A        30.3210    52.9450     2.2660 h1         1 EAM       0.047033
     39 H16B        31.0930    51.3450     2.1090 h1         1 EAM       0.047033
     40 H14         28.9140    51.6900    -1.8400 ha         1 EAM       0.146000
     41 H21         25.1020    46.6130     1.4180 hc         1 EAM       0.061367
     42 H21A        26.5520    47.5940     1.1620 hc         1 EAM       0.061367
     43 H21B        25.4500    47.9670     2.5070 hc         1 EAM       0.061367
     44 H5          24.6440    52.2010    -1.1600 h1         1 EAM       0.089700
     45 H4          22.6980    50.9610    -3.1600 hc         1 EAM       0.080700
     46 H4A         22.2390    51.9350    -1.7250 hc         1 EAM       0.080700
     47 HN1         23.1810    51.9910    -5.0030 hn         1 EAM       0.316500
     48 H2          24.1180    54.7500    -5.2120 h1         1 EAM       0.052200
     49 H2A         23.7260    53.6430    -6.5440 h1         1 EAM       0.052200
     50 H1          22.1630    55.5880    -6.5380 hc         1 EAM       0.042367
     51 H1A         21.2720    54.0890    -6.1970 hc         1 EAM       0.042367
     52 H1B         21.6640    55.2140    -4.8750 hc         1 EAM       0.042367
@<TRIPOS>BOND
     1     1     2 1   
     2     2     3 ar  
     3     2     5 ar  
     4     3     4 ar  
     5     3    31 1   
     6     4     7 ar  
     7     4    32 1   
     8     5     6 ar  
     9     5    33 1   
    10     6     7 ar  
    11     6    34 1   
    12     7     8 1   
    13     8     9 2   
    14     8    10 1   
    15     9    24 1   
    16    10    11 ar  
    17    10    17 ar  
    18    11    12 ar  
    19    11    18 1   
    20    12    13 ar  
    21    12    35 1   
    22    13    14 ar  
    23    13    36 1   
    24    14    15 1   
    25    14    17 ar  
    26    15    16 1   
    27    16    37 1   
    28    16    38 1   
    29    16    39 1   
    30    17    40 1   
    31    18    19 1   
    32    18    22 1   
    33    19    20 2   
    34    19    24 1   
    35    20    21 1   
    36    21    22 2   
    37    22    23 1   
    38    23    41 1   
    39    23    42 1   
    40    23    43 1   
    41    24    25 1   
    42    24    44 1   
    43    25    26 1   
    44    25    45 1   
    45    25    46 1   
    46    26    27 2   
    47    26    28 1   
    48    28    29 1   
    49    28    47 1   
    50    29    30 1   
    51    29    48 1   
    52    29    49 1   
    53    30    50 1   
    54    30    51 1   
    55    30    52 1   
@<TRIPOS>SUBSTRUCTURE
     1 EAM         1 TEMP              0 ****  ****    0 ROOT
