@<TRIPOS>MOLECULE
EAM
   52    55     1     0     0
SMALL
abcg2


@<TRIPOS>ATOM
      1 CL          29.8880    48.7830    -7.0560 cl         1 EAM      -0.206000
      2 C10         28.9070    49.3150    -5.7100 ca         1 EAM       0.136000
      3 C9          29.1390    48.7870    -4.4470 ca         1 EAM      -0.111000
      4 C8          28.3640    49.2250    -3.3820 ca         1 EAM      -0.067500
      5 C11         27.9130    50.2620    -5.9260 ca         1 EAM      -0.111000
      6 C12         27.1370    50.6790    -4.8550 ca         1 EAM      -0.067500
      7 C7          27.3520    50.1690    -3.5720 ca         1 EAM      -0.139900
      8 C6          26.4850    50.6060    -2.4460 ce         1 EAM       0.534500
      9 N2          25.2670    50.8880    -2.7150 n2         1 EAM      -0.575900
     10 C13         27.1040    50.7010    -1.0940 ca         1 EAM      -0.147900
     11 C19         26.4620    50.2480     0.0730 ca         1 EAM      -0.018200
     12 C18         27.0880    50.3820     1.3050 ca         1 EAM      -0.078000
     13 C17         28.3490    50.9490     1.4090 ca         1 EAM      -0.170000
     14 C15         28.9960    51.4050     0.2600 ca         1 EAM       0.141100
     15 O2          30.2200    51.9840     0.2480 os         1 EAM      -0.340100
     16 C16         30.9060    52.1450     1.4920 c3         1 EAM       0.146900
     17 C14         28.3680    51.2720    -0.9780 ca         1 EAM      -0.105000
     18 N3          25.1670    49.6720    -0.0030 na         1 EAM      -0.286800
     19 C22         24.1310    50.1860    -0.7430 cc         1 EAM       0.387800
     20 N5          23.0620    49.4570    -0.5880 nd         1 EAM      -0.343000
     21 N4          23.3900    48.4260     0.2810 nd         1 EAM      -0.360000
     22 C20         24.6480    48.5610     0.6230 cc         1 EAM       0.412800
     23 C21         25.4020    47.6460     1.5150 c3         1 EAM      -0.123400
     24 C5          24.3770    51.3480    -1.6430 c3         1 EAM       0.104200
     25 C4          23.0990    51.9110    -2.2520 c3         1 EAM      -0.130400
     26 C3          23.4250    53.1370    -3.0850 c          1 EAM       0.599100
     27 O1          24.0410    54.0910    -2.6000 o          1 EAM      -0.626100
     28 N1          22.9960    53.1190    -4.3560 ns         1 EAM      -0.500900
     29 C2          23.2390    54.2030    -5.2990 c3         1 EAM       0.102000
     30 C1          22.2710    54.1300    -6.4680 c3         1 EAM      -0.110100
     31 H9          29.9130    48.0470    -4.2970 ha         1 EAM       0.133000
     32 H8          28.5440    48.8150    -2.3970 ha         1 EAM       0.129500
     33 H11         27.7530    50.6690    -6.9150 ha         1 EAM       0.133000
     34 H12         26.3600    51.4150    -5.0090 ha         1 EAM       0.129500
     35 H18         26.5800    50.0550     2.2010 ha         1 EAM       0.129000
     36 H17         28.8050    51.0410     2.3830 ha         1 EAM       0.127000
     37 H16         31.8540    52.6170     1.2470 h1         1 EAM       0.047033
     38 H16A        30.3390    52.7870     2.1700 h1         1 EAM       0.047033
     39 H16B        31.0870    51.1780     1.9660 h1         1 EAM       0.047033
     40 H14         28.8830    51.6280    -1.8590 ha         1 EAM       0.146000
     41 H21         24.8630    46.7030     1.5850 hc         1 EAM       0.061367
     42 H21A        26.4040    47.4580     1.1270 hc         1 EAM       0.061367
     43 H21B        25.5030    48.0590     2.5200 hc         1 EAM       0.061367
     44 H5          24.8670    52.1370    -1.0610 h1         1 EAM       0.089700
     45 H4          22.6000    51.1450    -2.8440 hc         1 EAM       0.080700
     46 H4A         22.4220    52.2210    -1.4540 hc         1 EAM       0.080700
     47 HN1         22.5670    52.2760    -4.7050 hn         1 EAM       0.316500
     48 H2          23.1300    55.1460    -4.7620 h1         1 EAM       0.052200
     49 H2A         24.2730    54.1550    -5.6570 h1         1 EAM       0.052200
     50 H1          22.4770    54.9370    -7.1720 hc         1 EAM       0.042367
     51 H1A         22.3730    53.1820    -7.0010 hc         1 EAM       0.042367
     52 H1B         21.2380    54.2250    -6.1260 hc         1 EAM       0.042367
@<TRIPOS>BOND
     1     1     2 1   
     2     2     3 ar  
     3     2     5 ar  
     4     3     4 ar  
     5     3    31 1   
     6     4     7 ar  
     7     4    32 1   
     8     5     6 ar  
     9     5    33 1   
    10     6     7 ar  
    11     6    34 1   
    12     7     8 1   
    13     8     9 2   
    14     8    10 1   
    15     9    24 1   
    16    10    11 ar  
    17    10    17 ar  
    18    11    12 ar  
    19    11    18 1   
    20    12    13 ar  
    21    12    35 1   
    22    13    14 ar  
    23    13    36 1   
    24    14    15 1   
    25    14    17 ar  
    26    15    16 1   
    27    16    37 1   
    28    16    38 1   
    29    16    39 1   
    30    17    40 1   
    31    18    19 1   
    32    18    22 1   
    33    19    20 2   
    34    19    24 1   
    35    20    21 1   
    36    21    22 2   
    37    22    23 1   
    38    23    41 1   
    39    23    42 1   
    40    23    43 1   
    41    24    25 1   
    42    24    44 1   
    43    25    26 1   
    44    25    45 1   
    45    25    46 1   
    46    26    27 2   
    47    26    28 1   
    48    28    29 1   
    49    28    47 1   
    50    29    30 1   
    51    29    48 1   
    52    29    49 1   
    53    30    50 1   
    54    30    51 1   
    55    30    52 1   
@<TRIPOS>SUBSTRUCTURE
     1 EAM         1 TEMP              0 ****  ****    0 ROOT
