@<TRIPOS>MOLECULE
EAO
   30    30     1     0     0
SMALL
No Charge or Current Charge


@<TRIPOS>ATOM
      1 C04         -2.3790    -0.6650     0.1990 ca         1 EAO      -0.205200
      2 C05         -1.0420    -1.1060     0.0720 ca         1 EAO      -0.021000
      3 C06         -0.0540    -0.2530    -0.4560 ca         1 EAO      -0.087800
      4 C07          1.3460    -0.7440    -0.5950 ce         1 EAO      -0.039200
      5 C08          2.5310    -0.1790    -0.1790 cf         1 EAO      -0.296400
      6 C09          2.5220     1.0960     0.6190 c          1 EAO       0.582800
      7 C11          3.6500     2.1110     0.4280 c3         1 EAO      -0.198100
      8 C12          3.8090    -0.8970    -0.5210 c          1 EAO       0.582800
      9 C14          5.0860    -0.6300     0.2800 c3         1 EAO      -0.198100
     10 C15         -0.4070     1.0400    -0.8890 ca         1 EAO      -0.097000
     11 C16         -1.7360     1.4830    -0.7770 ca         1 EAO       0.028100
     12 C18         -2.7220     0.6330    -0.2320 ca         1 EAO       0.212100
     13 N02         -3.3990    -1.5820     0.7730 no         1 EAO       0.704200
     14 O01         -4.1570    -1.1390     1.6460 o          1 EAO      -0.387000
     15 O03         -3.3020    -2.7850     0.4980 o          1 EAO      -0.387000
     16 O10          1.5980     1.3740     1.3710 o          1 EAO      -0.509100
     17 O13          3.8310    -1.7580    -1.3910 o          1 EAO      -0.509100
     18 O17         -2.0840     2.7410    -1.2080 oh         1 EAO      -0.555100
     19 O19         -4.0040     1.0940    -0.1790 oh         1 EAO      -0.482100
     20 H1          -0.7620    -2.1070     0.3980 ha         1 EAO       0.158000
     21 H2           1.3840    -1.7010    -1.1230 ha         1 EAO       0.207000
     22 H3           4.1260     1.9900    -0.5510 hc         1 EAO       0.064533
     23 H4           3.2860     3.1340     0.5760 hc         1 EAO       0.064533
     24 H5           4.4290     1.9260     1.1750 hc         1 EAO       0.064533
     25 H6           4.8460    -0.3570     1.3130 hc         1 EAO       0.064533
     26 H7           5.7720    -1.4830     0.2350 hc         1 EAO       0.064533
     27 H8           5.5950     0.2430    -0.1400 hc         1 EAO       0.064533
     28 H9           0.3520     1.6890    -1.3180 ha         1 EAO       0.121000
     29 H10         -1.2850     3.1980    -1.5550 ho         1 EAO       0.488000
     30 H11         -3.9680     2.0060    -0.5450 ho         1 EAO       0.501000
@<TRIPOS>BOND
     1     1     2 ar  
     2     1    12 ar  
     3     1    13 1   
     4     2     3 ar  
     5     2    20 1   
     6     3     4 1   
     7     3    10 ar  
     8     4     5 2   
     9     4    21 1   
    10     5     6 1   
    11     5     8 1   
    12     6     7 1   
    13     6    16 2   
    14     7    22 1   
    15     7    23 1   
    16     7    24 1   
    17     8     9 1   
    18     8    17 2   
    19     9    25 1   
    20     9    26 1   
    21     9    27 1   
    22    10    11 ar  
    23    10    28 1   
    24    11    12 ar  
    25    11    18 1   
    26    12    19 1   
    27    13    14 1   
    28    13    15 1   
    29    18    29 1   
    30    19    30 1   
@<TRIPOS>SUBSTRUCTURE
     1 EAO         1 TEMP              0 ****  ****    0 ROOT
