@<TRIPOS>MOLECULE
EAO
   30    30     1     0     0
SMALL
bcc


@<TRIPOS>ATOM
      1 C04         -2.3470    -0.6520    -0.0140 ca         1 EAO      -0.205200
      2 C05         -1.0510    -1.1480    -0.0960 ca         1 EAO      -0.039000
      3 C06          0.0170    -0.2880    -0.2880 ca         1 EAO      -0.087800
      4 C07          1.3540    -0.8660    -0.3210 ce         1 EAO       0.010800
      5 C08          2.5310    -0.3050     0.0000 cf         1 EAO      -0.296400
      6 C09          2.6440     1.0630     0.6050 c          1 EAO       0.582800
      7 C11          3.3510     2.1300    -0.1880 c3         1 EAO      -0.198100
      8 C12          3.7690    -1.1300    -0.1540 c          1 EAO       0.582800
      9 C14          5.0520    -0.5590     0.3780 c3         1 EAO      -0.198100
     10 C15         -0.2470     1.0780    -0.4710 ca         1 EAO      -0.115000
     11 C16         -1.5310     1.5630    -0.4230 ca         1 EAO       0.028100
     12 C18         -2.6240     0.7060    -0.1720 ca         1 EAO       0.212100
     13 N02         -3.4160    -1.5990     0.2290 no         1 EAO       0.324200
     14 O01         -4.4080    -1.2120     0.7960 o          1 EAO      -0.197000
     15 O03         -3.2450    -2.7400    -0.1380 o          1 EAO      -0.197000
     16 O10          2.1720     1.2840     1.6970 o          1 EAO      -0.509100
     17 O13          3.7290    -2.2240    -0.6760 o          1 EAO      -0.509100
     18 O17         -1.8700     2.8500    -0.6130 oh         1 EAO      -0.516100
     19 O19         -3.8610     1.1840    -0.1480 oh         1 EAO      -0.443100
     20 H1          -0.8750    -2.2080     0.0220 ha         1 EAO       0.176000
     21 H2           1.3880    -1.9010    -0.6480 ha         1 EAO       0.157000
     22 H3           3.6230     1.8040    -1.1890 hc         1 EAO       0.064533
     23 H4           2.7100     3.0090    -0.2670 hc         1 EAO       0.064533
     24 H5           4.2550     2.4470     0.3360 hc         1 EAO       0.064533
     25 H6           4.9330    -0.1800     1.3950 hc         1 EAO       0.064533
     26 H7           5.8370    -1.3110     0.3710 hc         1 EAO       0.064533
     27 H8           5.3780     0.2790    -0.2420 hc         1 EAO       0.064533
     28 H9           0.5520     1.7710    -0.7020 ha         1 EAO       0.139000
     29 H10         -1.1000     3.4000    -0.7990 ho         1 EAO       0.449000
     30 H11         -3.8590     2.1300    -0.3530 ho         1 EAO       0.462000
@<TRIPOS>BOND
     1     1     2 ar  
     2     1    12 ar  
     3     1    13 1   
     4     2     3 ar  
     5     2    20 1   
     6     3     4 1   
     7     3    10 ar  
     8     4     5 2   
     9     4    21 1   
    10     5     6 1   
    11     5     8 1   
    12     6     7 1   
    13     6    16 2   
    14     7    22 1   
    15     7    23 1   
    16     7    24 1   
    17     8     9 1   
    18     8    17 2   
    19     9    25 1   
    20     9    26 1   
    21     9    27 1   
    22    10    11 ar  
    23    10    28 1   
    24    11    12 ar  
    25    11    18 1   
    26    12    19 1   
    27    13    14 1   
    28    13    15 1   
    29    18    29 1   
    30    19    30 1   
@<TRIPOS>SUBSTRUCTURE
     1 EAO         1 TEMP              0 ****  ****    0 ROOT
