@<TRIPOS>MOLECULE
EAP
   12    11     1     0     0
SMALL
abcg2


@<TRIPOS>ATOM
      1 O1          -0.3950     1.5000    -1.4230 o          1 EAP      -0.911833
      2 O2           1.0440    -0.4640    -2.2530 o          1 EAP      -0.911833
      3 O3          -1.2800    -0.8950    -1.2340 o          1 EAP      -0.911833
      4 O4           0.7190    -0.1530     0.2020 os         1 EAP      -0.429500
      5 P           -0.0660     0.0170    -1.3340 p5         1 EAP       1.258900
      6 C1           0.0130     0.1040     1.3180 c2         1 EAP       0.137100
      7 C2           0.5150    -0.0530     2.5460 c2         1 EAP      -0.365000
      8 N3          -0.1320     0.3180     3.7470 nv         1 EAP      -0.884000
      9 H11         -1.0050     0.4760     1.1990 h4         1 EAP       0.144000
     10 H21          1.5250    -0.4280     2.6770 h4         1 EAP       0.164000
     11 HN31        -0.1420    -0.4440     4.4110 hn         1 EAP       0.354500
     12 HN32        -1.0930     0.5910     3.5870 hn         1 EAP       0.354500
@<TRIPOS>BOND
     1     1     5 1   
     2     2     5 1   
     3     3     5 1   
     4     4     5 1   
     5     4     6 1   
     6     6     7 2   
     7     6     9 1   
     8     7     8 1   
     9     7    10 1   
    10     8    11 1   
    11     8    12 1   
@<TRIPOS>SUBSTRUCTURE
     1 EAP         1 TEMP              0 ****  ****    0 ROOT
