@<TRIPOS>MOLECULE
EAP
   12    11     1     0     0
SMALL
No Charge or Current Charge


@<TRIPOS>ATOM
      1 O1          -0.2920     1.4620    -1.5040 o          1 EAP      -0.911833
      2 O2           1.0260    -0.4180    -2.2930 o          1 EAP      -0.911833
      3 O3          -1.2280    -0.7870    -1.4710 o          1 EAP      -0.911833
      4 O4           0.6010    -0.2040     0.1950 os         1 EAP      -0.429500
      5 P            0.0120     0.0190    -1.2920 p5         1 EAP       1.258900
      6 C1          -0.0740     0.0910     1.3410 c2         1 EAP       0.137100
      7 C2           0.4770    -0.1210     2.5500 c2         1 EAP      -0.365000
      8 N3          -0.2130     0.1810     3.7330 nv         1 EAP      -0.884000
      9 H11         -1.0750     0.5040     1.1900 h4         1 EAP       0.144000
     10 H21          1.4860    -0.5360     2.6480 h4         1 EAP       0.164000
     11 HN31         0.1780    -0.0840     4.6400 hn         1 EAP       0.354500
     12 HN32        -1.1960     0.4620     3.7040 hn         1 EAP       0.354500
@<TRIPOS>BOND
     1     1     5 1   
     2     2     5 1   
     3     3     5 1   
     4     4     5 1   
     5     4     6 1   
     6     6     7 2   
     7     6     9 1   
     8     7     8 1   
     9     7    10 1   
    10     8    11 1   
    11     8    12 1   
@<TRIPOS>SUBSTRUCTURE
     1 EAP         1 TEMP              0 ****  ****    0 ROOT
