@<TRIPOS>MOLECULE
EAR
   40    42     1     0     0
SMALL
No Charge or Current Charge


@<TRIPOS>ATOM
      1 N            2.5020    -0.9330     0.5640 na         1 EAR      -0.604100
      2 CA           2.9550     0.4620     0.9210 c3         1 EAR       0.161800
      3 C            3.1280     1.4360    -0.2690 c          1 EAR       0.577100
      4 O            3.1820     1.0960    -1.4460 o          1 EAR      -0.469000
      5 CAA          3.5570     5.1010    -0.0890 c3         1 EAR      -0.098100
      6 CAB          4.9070    -1.7900     0.6410 c3         1 EAR      -0.074900
      7 CAF         -3.5760     1.8600     0.2680 ca         1 EAR      -0.107500
      8 CAG         -4.6550    -0.2330    -0.3310 ca         1 EAR      -0.107500
      9 CAH         -2.3310     1.2060     0.3110 ca         1 EAR      -0.085500
     10 CAI         -3.4120    -0.8890    -0.2890 ca         1 EAR      -0.085500
     11 CAJ          2.8760    -3.2220     0.0970 cc         1 EAR      -0.407200
     12 CAK         -0.6670    -2.1970    -0.1670 cc         1 EAR      -0.176000
     13 CAQ         -4.7360     1.1400    -0.0530 ca         1 EAR       0.120000
     14 CAR          3.4270    -1.9940     0.4320 cd         1 EAR       0.214800
     15 CAS         -2.2350    -0.1760     0.0330 ca         1 EAR      -0.103500
     16 CAT         -0.9280    -0.8630     0.0780 cd         1 EAR       0.317500
     17 CAU          1.4590    -3.5070    -0.1480 c          1 EAR       0.561000
     18 CAV          1.1660    -1.1960     0.3100 cc         1 EAR       0.653400
     19 NAN          0.2810    -0.2150     0.3910 nd         1 EAR      -0.711000
     20 NAX          0.6740    -2.3870    -0.0150 n          1 EAR      -0.152300
     21 OAD          1.0240    -4.6110    -0.4430 o          1 EAR      -0.502000
     22 OAO          3.2620     2.7340     0.1610 os         1 EAR      -0.448100
     23 H1           2.2300     0.9230     1.6030 h1         1 EAR       0.101200
     24 H2           3.9040     0.4480     1.4670 h1         1 EAR       0.101200
     25 H3           2.6480     5.3000     0.4910 hc         1 EAR       0.049033
     26 H4           4.4140     5.0920     0.5940 hc         1 EAR       0.049033
     27 H5           3.6950     5.9190    -0.8050 hc         1 EAR       0.049033
     28 H6           5.1280    -1.5480     1.6870 hc         1 EAR       0.065700
     29 H7           5.4720    -2.6950     0.3900 hc         1 EAR       0.065700
     30 H8           5.2910    -0.9820     0.0090 hc         1 EAR       0.065700
     31 H9          -3.6400     2.9230     0.4830 ha         1 EAR       0.128000
     32 H10         -5.5560    -0.7890    -0.5790 ha         1 EAR       0.128000
     33 H11         -1.4420     1.7810     0.5620 ha         1 EAR       0.125500
     34 H12         -3.3720    -1.9530    -0.5080 ha         1 EAR       0.125500
     35 H13          3.5150    -4.0900    -0.0160 ha         1 EAR       0.223000
     36 H14         -1.2920    -3.0380    -0.4380 h4         1 EAR       0.181000
     37 H15          2.5870     3.7940    -1.5190 h1         1 EAR       0.052700
     38 H16          4.3550     3.5850    -1.4160 h1         1 EAR       0.052700
     39 Cl          -6.2920     1.9580    -0.1060 cl         1 EAR      -0.208000
     40 CAL          3.4420     3.7600    -0.8310 c3         1 EAR       0.168600
@<TRIPOS>BOND
     1     1     2 1   
     2     1    14 1   
     3     1    18 1   
     4     2     3 1   
     5     2    23 1   
     6     2    24 1   
     7     3     4 2   
     8     3    22 1   
     9     5    25 1   
    10     5    26 1   
    11     5    27 1   
    12     5    40 1   
    13     6    14 1   
    14     6    28 1   
    15     6    29 1   
    16     6    30 1   
    17     7     9 ar  
    18     7    13 ar  
    19     7    31 1   
    20     8    10 ar  
    21     8    13 ar  
    22     8    32 1   
    23     9    15 ar  
    24     9    33 1   
    25    10    15 ar  
    26    10    34 1   
    27    11    14 2   
    28    11    17 1   
    29    11    35 1   
    30    12    16 2   
    31    12    20 1   
    32    12    36 1   
    33    13    39 1   
    34    15    16 1   
    35    16    19 1   
    36    17    20 1   
    37    17    21 2   
    38    18    19 2   
    39    18    20 1   
    40    22    40 1   
    41    37    40 1   
    42    38    40 1   
@<TRIPOS>SUBSTRUCTURE
     1 EAR         1 TEMP              0 ****  ****    0 ROOT
