@<TRIPOS>MOLECULE
EAR
   40    42     1     0     0
SMALL
bcc


@<TRIPOS>ATOM
      1 N            2.4690    -0.8560     0.6630 na         1 EAR      -0.604100
      2 CA           2.8520     0.4820     1.0500 c3         1 EAR       0.161800
      3 C            3.0460     1.3590    -0.1720 c          1 EAR       0.626100
      4 O            3.0330     0.9460    -1.3010 o          1 EAR      -0.518000
      5 CAA          3.6800     4.9230    -0.1910 c3         1 EAR      -0.098100
      6 CAB          4.8020    -1.6020     0.6940 c3         1 EAR      -0.074900
      7 CAF         -3.5640     1.8030     0.3450 ca         1 EAR      -0.125500
      8 CAG         -4.6310    -0.2560    -0.3220 ca         1 EAR      -0.125500
      9 CAH         -2.3410     1.1530     0.3660 ca         1 EAR      -0.103500
     10 CAI         -3.4020    -0.8920    -0.2960 ca         1 EAR      -0.103500
     11 CAJ          2.9300    -3.0780    -0.0130 cc         1 EAR      -0.357200
     12 CAK         -0.6360    -2.1540    -0.2650 cc         1 EAR      -0.208600
     13 CAQ         -4.7020     1.0920    -0.0010 ca         1 EAR       0.028400
     14 CAR          3.3580    -1.8640     0.4340 cd         1 EAR       0.214800
     15 CAS         -2.2390    -0.2000     0.0470 ca         1 EAR      -0.103500
     16 CAT         -0.9390    -0.8660     0.0720 cd         1 EAR       0.382800
     17 CAU          1.5580    -3.3720    -0.2960 c          1 EAR       0.636500
     18 CAV          1.1520    -1.0540     0.3700 cc         1 EAR       0.653400
     19 NAN          0.1920    -0.1880     0.4660 nd         1 EAR      -0.711000
     20 NAX          0.7230    -2.2690    -0.0690 n          1 EAR      -0.203000
     21 OAD          1.0920    -4.4200    -0.6970 o          1 EAR      -0.577500
     22 OAO          3.2420     2.6110     0.1830 os         1 EAR      -0.424900
     23 H1           2.0820     0.9050     1.6950 h1         1 EAR       0.101200
     24 H2           3.7690     0.4600     1.6370 h1         1 EAR       0.101200
     25 H3           2.8030     5.2270     0.3790 hc         1 EAR       0.049033
     26 H4           4.5450     4.9150     0.4720 hc         1 EAR       0.049033
     27 H5           3.8570     5.6740    -0.9600 hc         1 EAR       0.049033
     28 H6           4.9820    -1.3490     1.7400 hc         1 EAR       0.065700
     29 H7           5.3860    -2.4870     0.4570 hc         1 EAR       0.065700
     30 H8           5.1750    -0.7790     0.0810 hc         1 EAR       0.065700
     31 H9          -3.6260     2.8540     0.5930 ha         1 EAR       0.146000
     32 H10         -5.5230    -0.8060    -0.5880 ha         1 EAR       0.146000
     33 H11         -1.4520     1.7090     0.6320 ha         1 EAR       0.143500
     34 H12         -3.3620    -1.9450    -0.5450 ha         1 EAR       0.143500
     35 H13          3.6540    -3.8640    -0.1710 ha         1 EAR       0.173000
     36 H14         -1.2290    -2.9800    -0.6170 h4         1 EAR       0.199000
     37 H15          2.6180     3.6050    -1.5290 h1         1 EAR       0.052700
     38 H16          4.3560     3.2930    -1.4310 h1         1 EAR       0.052700
     39 CL          -6.2370     1.8960    -0.0310 cl         1 EAR      -0.116400
     40 CAL          3.4760     3.5840    -0.8550 c3         1 EAR       0.145400
@<TRIPOS>BOND
     1     1     2 1   
     2     1    14 1   
     3     1    18 1   
     4     2     3 1   
     5     2    23 1   
     6     2    24 1   
     7     3     4 2   
     8     3    22 1   
     9     5    25 1   
    10     5    26 1   
    11     5    27 1   
    12     5    40 1   
    13     6    14 1   
    14     6    28 1   
    15     6    29 1   
    16     6    30 1   
    17     7     9 ar  
    18     7    13 ar  
    19     7    31 1   
    20     8    10 ar  
    21     8    13 ar  
    22     8    32 1   
    23     9    15 ar  
    24     9    33 1   
    25    10    15 ar  
    26    10    34 1   
    27    11    14 2   
    28    11    17 1   
    29    11    35 1   
    30    12    16 2   
    31    12    20 1   
    32    12    36 1   
    33    13    39 1   
    34    15    16 1   
    35    16    19 1   
    36    17    20 1   
    37    17    21 2   
    38    18    19 2   
    39    18    20 1   
    40    22    40 1   
    41    37    40 1   
    42    38    40 1   
@<TRIPOS>SUBSTRUCTURE
     1 EAR         1 TEMP              0 ****  ****    0 ROOT
