@<TRIPOS>MOLECULE
EAS
   60    64     1     0     0
SMALL
No Charge or Current Charge


@<TRIPOS>ATOM
      1 N1           4.9530    -2.3140    -1.7000 na         1 EAS      -0.218700
      2 N3          -2.8490     0.6020    -0.9840 n3         1 EAS      -0.727600
      3 C4           6.0200    -1.6700    -1.1010 ca         1 EAS      -0.050200
      4 C5           7.3870    -1.9050    -1.3060 ca         1 EAS      -0.124000
      5 C6           8.3110    -1.1270    -0.5760 ca         1 EAS      -0.084000
      6 C7           7.8540    -0.1450     0.3340 ca         1 EAS       0.087000
      7 C8           6.4730     0.0680     0.5200 ca         1 EAS      -0.034000
      8 C10          1.5670     2.0910     0.5600 c          1 EAS       0.550100
      9 C13         -2.0170     0.2380     0.1960 c6         1 EAS       0.170800
     10 C15         -4.2030    -1.5030    -0.9130 cc         1 EAS      -0.141400
     11 C17         -5.8680    -2.2780     0.4160 ca         1 EAS      -0.052200
     12 C20         -7.1870     0.1520     0.7540 ca         1 EAS       0.086000
     13 C21         -6.0220     0.0950    -0.0380 ca         1 EAS      -0.037000
     14 C22         -5.3890    -1.1470    -0.1850 ca         1 EAS      -0.080800
     15 C24         -1.7570     2.8570    -1.0890 c6         1 EAS      -0.092900
     16 N            4.0410     2.4330    -0.0950 n8         1 EAS      -0.976200
     17 C            2.8620     1.4960    -0.0940 c3         1 EAS       0.091500
     18 O            1.5540     2.5790     1.6840 o          1 EAS      -0.612100
     19 C1           3.2060     0.1330     0.5660 c3         1 EAS       0.006800
     20 C11         -0.8950     2.5430     0.1570 c6         1 EAS       0.118700
     21 C12         -1.6340     1.4900     1.0190 c6         1 EAS      -0.092900
     22 C16         -4.0270    -2.8690    -0.7040 cd         1 EAS      -0.157100
     23 C18         -7.0240    -2.2520     1.2090 ca         1 EAS      -0.124000
     24 C19         -7.6880    -1.0160     1.3750 ca         1 EAS      -0.083000
     25 C2           4.1430    -0.7330    -0.2420 cc         1 EAS      -0.121400
     26 C23         -2.1510     1.5750    -1.8630 c6         1 EAS       0.170800
     27 C3           3.7870    -1.7240    -1.1530 cd         1 EAS      -0.167100
     28 C9           5.5800    -0.7180    -0.2230 ca         1 EAS      -0.073800
     29 N2           0.4400     2.0660    -0.2350 ns         1 EAS      -0.504900
     30 N4          -5.0640    -3.3640     0.1250 na         1 EAS      -0.219700
     31 Cl           9.0180     0.8140     1.2400 cl         1 EAS      -0.219000
     32 Cl1         -8.0220     1.6850     0.9740 cl         1 EAS      -0.219000
     33 H1           4.9980    -3.0600    -2.3880 hn         1 EAS       0.351000
     34 H3           7.7270    -2.6650    -2.0060 ha         1 EAS       0.116000
     35 H4           9.3790    -1.2840    -0.7110 ha         1 EAS       0.126000
     36 H5           6.1150     0.8200     1.2170 ha         1 EAS       0.134000
     37 H6          -2.5630    -0.4520     0.8570 h1         1 EAS       0.030200
     38 H7          -1.1030    -0.2820    -0.1260 h1         1 EAS       0.030200
     39 H8          -5.6260     0.9870    -0.5150 ha         1 EAS       0.145000
     40 H9          -2.6710     3.3790    -0.7760 hc         1 EAS       0.061200
     41 H10         -1.2220     3.5470    -1.7550 hc         1 EAS       0.061200
     42 H11          3.7940     3.2900    -0.6040 hn         1 EAS       0.407000
     43 H12          4.1920     2.7700     0.8640 hn         1 EAS       0.407000
     44 H14          2.6150     1.2890    -1.1450 h1         1 EAS       0.061700
     45 H15          3.6190     0.3050     1.5680 hc         1 EAS       0.052700
     46 H16          2.2720    -0.4220     0.7210 hc         1 EAS       0.052700
     47 H17         -0.7710     3.4660     0.7440 h1         1 EAS       0.071700
     48 H18         -2.5460     1.9350     1.4380 hc         1 EAS       0.061200
     49 H19         -1.0140     1.1960     1.8770 hc         1 EAS       0.061200
     50 H20         -3.9260    -0.2500    -2.6010 h1         1 EAS       0.032700
     51 H21         -2.4830    -1.1520    -2.1270 h1         1 EAS       0.032700
     52 H22         -3.2430    -3.5190    -1.0850 h4         1 EAS       0.212000
     53 H23         -7.4000    -3.1550     1.6840 ha         1 EAS       0.117000
     54 H24         -8.5870    -0.9610     1.9840 ha         1 EAS       0.126000
     55 H25         -1.2490     1.1170    -2.2960 h1         1 EAS       0.030200
     56 H26         -2.8010     1.8600    -2.7040 h1         1 EAS       0.030200
     57 H27          2.7930    -2.0500    -1.4500 h4         1 EAS       0.207000
     58 H28          0.5470     1.6620    -1.1580 hn         1 EAS       0.310500
     59 H29         -5.1920    -4.3210     0.4420 hn         1 EAS       0.353000
     60 C14         -3.3350    -0.5800    -1.7350 c3         1 EAS       0.251000
@<TRIPOS>BOND
     1     1     3 1   
     2     1    27 1   
     3     1    33 1   
     4     2     9 1   
     5     2    26 1   
     6     2    60 1   
     7     3     4 ar  
     8     3    28 ar  
     9     4     5 ar  
    10     4    34 1   
    11     5     6 ar  
    12     5    35 1   
    13     6     7 ar  
    14     6    31 1   
    15     7    28 ar  
    16     7    36 1   
    17     8    17 1   
    18     8    18 2   
    19     8    29 1   
    20     9    21 1   
    21     9    37 1   
    22     9    38 1   
    23    10    14 1   
    24    10    22 2   
    25    10    60 1   
    26    11    14 ar  
    27    11    23 ar  
    28    11    30 1   
    29    12    13 ar  
    30    12    24 ar  
    31    12    32 1   
    32    13    14 ar  
    33    13    39 1   
    34    15    20 1   
    35    15    26 1   
    36    15    40 1   
    37    15    41 1   
    38    16    17 1   
    39    16    42 1   
    40    16    43 1   
    41    17    19 1   
    42    17    44 1   
    43    19    25 1   
    44    19    45 1   
    45    19    46 1   
    46    20    21 1   
    47    20    29 1   
    48    20    47 1   
    49    21    48 1   
    50    21    49 1   
    51    22    30 1   
    52    22    52 1   
    53    23    24 ar  
    54    23    53 1   
    55    24    54 1   
    56    25    27 2   
    57    25    28 1   
    58    26    55 1   
    59    26    56 1   
    60    27    57 1   
    61    29    58 1   
    62    30    59 1   
    63    50    60 1   
    64    51    60 1   
@<TRIPOS>SUBSTRUCTURE
     1 EAS         1 TEMP              0 ****  ****    0 ROOT
