@<TRIPOS>MOLECULE
EAS
   60    64     1     0     0
SMALL
bcc


@<TRIPOS>ATOM
      1 N1           5.0440    -1.7950    -2.1710 na         1 EAS      -0.168400
      2 N3          -2.7410     0.4670    -1.0290 n3         1 EAS      -0.727600
      3 C4           5.9710    -1.4700    -1.2280 ca         1 EAS      -0.050200
      4 C5           7.3220    -1.7970    -1.1340 ca         1 EAS      -0.142000
      5 C6           8.0260    -1.3310    -0.0430 ca         1 EAS      -0.102000
      6 C7           7.3810    -0.5500     0.9290 ca         1 EAS      -0.004600
      7 C8           6.0490    -0.2130     0.8460 ca         1 EAS      -0.052000
      8 C10          1.4840     2.2160     0.3220 c          1 EAS       0.617100
      9 C13         -1.8750     0.2140     0.1060 c6         1 EAS       0.170800
     10 C15         -4.0480    -1.5810    -0.7820 cc         1 EAS      -0.141400
     11 C17         -5.6910    -2.2570     0.6610 ca         1 EAS      -0.052200
     12 C20         -6.8090     0.2080     1.0700 ca         1 EAS      -0.005600
     13 C21         -5.7230     0.1330     0.2260 ca         1 EAS      -0.055000
     14 C22         -5.1530    -1.1260     0.0060 ca         1 EAS      -0.080800
     15 C24         -1.8100     2.7160    -1.3090 c6         1 EAS      -0.092900
     16 N            3.9650     2.3490     0.1720 n8         1 EAS      -0.865800
     17 C            2.7780     1.6670    -0.2860 c3         1 EAS       0.091500
     18 O            1.4430     2.6350     1.4720 o          1 EAS      -0.612100
     19 C1           2.8500     0.1670     0.0490 c3         1 EAS       0.006800
     20 C11         -0.9310     2.5430    -0.0730 c6         1 EAS       0.118700
     21 C12         -1.5670     1.5030     0.8480 c6         1 EAS      -0.092900
     22 C16         -3.9610    -2.9280    -0.5680 cd         1 EAS      -0.107100
     23 C18         -6.7860    -2.1630     1.5160 ca         1 EAS      -0.142000
     24 C19         -7.3460    -0.9170     1.7140 ca         1 EAS      -0.101000
     25 C2           3.9520    -0.5550    -0.6520 cc         1 EAS      -0.121400
     26 C23         -2.1360     1.3850    -1.9720 c6         1 EAS       0.170800
     27 C3           3.8400    -1.2530    -1.8230 cd         1 EAS      -0.117100
     28 C9           5.3200    -0.6820    -0.2520 ca         1 EAS      -0.073800
     29 N2           0.4120     2.1600    -0.4810 ns         1 EAS      -0.571900
     30 N4          -4.9450    -3.3350     0.2880 na         1 EAS      -0.169400
     31 CL           8.3170     0.0160     2.2850 cl         1 EAS      -0.127400
     32 CL1         -7.5470     1.7580     1.3670 cl         1 EAS      -0.127400
     33 H1           5.2100    -2.3560    -2.9900 hn         1 EAS       0.300700
     34 H3           7.8130    -2.4000    -1.8870 ha         1 EAS       0.134000
     35 H4           9.0760    -1.5670     0.0650 ha         1 EAS       0.144000
     36 H5           5.5800     0.3980     1.6060 ha         1 EAS       0.152000
     37 H6          -2.3780    -0.4780     0.7850 h1         1 EAS       0.030200
     38 H7          -0.9350    -0.2800    -0.2030 h1         1 EAS       0.030200
     39 H8          -5.3030     1.0140    -0.2410 ha         1 EAS       0.163000
     40 H9          -2.7420     3.1930    -0.9980 hc         1 EAS       0.061200
     41 H10         -1.3330     3.3840    -2.0300 hc         1 EAS       0.061200
     42 H11          3.9330     3.3230    -0.1040 hn         1 EAS       0.351800
     43 H12          3.9850     2.3480     1.1840 hn         1 EAS       0.351800
     44 H14          2.7290     1.7650    -1.3750 h1         1 EAS       0.061700
     45 H15          2.9550     0.0550     1.1330 hc         1 EAS       0.052700
     46 H16          1.8950    -0.2960    -0.2120 hc         1 EAS       0.052700
     47 H17         -0.8630     3.4990     0.4530 h1         1 EAS       0.071700
     48 H18         -2.4990     1.9170     1.2430 hc         1 EAS       0.061200
     49 H19         -0.9200     1.2990     1.7010 hc         1 EAS       0.061200
     50 H20         -3.7600    -0.4550    -2.5630 h1         1 EAS       0.032700
     51 H21         -2.3470    -1.3620    -2.0470 h1         1 EAS       0.032700
     52 H22         -3.2560    -3.6380    -0.9710 h4         1 EAS       0.162000
     53 H23         -7.1910    -3.0320     2.0170 ha         1 EAS       0.135000
     54 H24         -8.1970    -0.8060     2.3710 ha         1 EAS       0.144000
     55 H25         -1.2300     0.9550    -2.4390 h1         1 EAS       0.030200
     56 H26         -2.8390     1.5570    -2.7920 h1         1 EAS       0.030200
     57 H27          2.9690    -1.4110    -2.4410 h4         1 EAS       0.157000
     58 H28          0.5520     1.8420    -1.4270 hn         1 EAS       0.310500
     59 H29         -5.0800    -4.2810     0.6040 hn         1 EAS       0.302700
     60 C14         -3.1890    -0.7510    -1.6760 c3         1 EAS       0.251000
@<TRIPOS>BOND
     1     1     3 1   
     2     1    27 1   
     3     1    33 1   
     4     2     9 1   
     5     2    26 1   
     6     2    60 1   
     7     3     4 ar  
     8     3    28 ar  
     9     4     5 ar  
    10     4    34 1   
    11     5     6 ar  
    12     5    35 1   
    13     6     7 ar  
    14     6    31 1   
    15     7    28 ar  
    16     7    36 1   
    17     8    17 1   
    18     8    18 2   
    19     8    29 1   
    20     9    21 1   
    21     9    37 1   
    22     9    38 1   
    23    10    14 1   
    24    10    22 2   
    25    10    60 1   
    26    11    14 ar  
    27    11    23 ar  
    28    11    30 1   
    29    12    13 ar  
    30    12    24 ar  
    31    12    32 1   
    32    13    14 ar  
    33    13    39 1   
    34    15    20 1   
    35    15    26 1   
    36    15    40 1   
    37    15    41 1   
    38    16    17 1   
    39    16    42 1   
    40    16    43 1   
    41    17    19 1   
    42    17    44 1   
    43    19    25 1   
    44    19    45 1   
    45    19    46 1   
    46    20    21 1   
    47    20    29 1   
    48    20    47 1   
    49    21    48 1   
    50    21    49 1   
    51    22    30 1   
    52    22    52 1   
    53    23    24 ar  
    54    23    53 1   
    55    24    54 1   
    56    25    27 2   
    57    25    28 1   
    58    26    55 1   
    59    26    56 1   
    60    27    57 1   
    61    29    58 1   
    62    30    59 1   
    63    50    60 1   
    64    51    60 1   
@<TRIPOS>SUBSTRUCTURE
     1 EAS         1 TEMP              0 ****  ****    0 ROOT
