@<TRIPOS>MOLECULE
EAT
   32    34     1     0     0
SMALL
abcg2


@<TRIPOS>ATOM
      1 OAD         -1.8040     2.1290    -0.7330 oh         1 EAT      -0.655000
      2 CAG         -1.8440     0.7280    -0.7240 c5         1 EAT       0.101300
      3 CAA         -3.2410     0.1270    -0.5680 c5         1 EAT       0.131300
      4 OAC         -3.9720     0.8070     0.4220 oh         1 EAT      -0.641000
      5 CAF         -2.9030    -1.2830    -0.1050 c5         1 EAT       0.179500
      6 CAB         -4.0360    -2.0360     0.5650 c3         1 EAT      -0.072100
      7 NAH         -1.7600    -1.0940     0.8020 n7         1 EAT      -0.856400
      8 CAE         -1.1190     0.1850     0.5170 c5         1 EAT       0.171200
      9 CAP          0.3530     0.0620     0.3020 cc         1 EAT       0.397800
     10 NAQ          1.2420     0.8480     0.9580 na         1 EAT      -0.297600
     11 CAM          2.4950     0.4910     0.5390 ca         1 EAT      -0.078200
     12 CAN          3.7670     0.9460     0.8690 ca         1 EAT      -0.113000
     13 CAI          4.8310     0.3280     0.2350 ca         1 EAT      -0.093000
     14 CAJ          4.6310    -0.7060    -0.6930 ca         1 EAT      -0.134000
     15 CAK          3.3610    -1.1530    -1.0140 ca         1 EAT      -0.050000
     16 CAL          2.2750    -0.5450    -0.3850 ca         1 EAT       0.069400
     17 NAO          0.9270    -0.7840    -0.5090 nd         1 EAT      -0.592100
     18 H1          -2.0710     2.4400    -1.6040 ho         1 EAT       0.453000
     19 H2          -1.3840     0.3050    -1.6260 h1         1 EAT       0.062700
     20 H3          -3.7860     0.1060    -1.5220 h1         1 EAT       0.046700
     21 H4          -3.7940     1.7500     0.3170 ho         1 EAT       0.451000
     22 H5          -2.6040    -1.8400    -1.0040 h1         1 EAT       0.031700
     23 H6          -4.8930    -2.1310    -0.1040 hc         1 EAT       0.043700
     24 H7          -3.7160    -3.0430     0.8340 hc         1 EAT       0.043700
     25 H8          -4.3600    -1.5320     1.4740 hc         1 EAT       0.043700
     26 H9          -1.1080    -1.8610     0.7230 hn         1 EAT       0.438000
     27 H11         -1.2770     0.8910     1.3420 h1         1 EAT       0.084700
     28 H12          1.0130     1.5640     1.6300 hn         1 EAT       0.362000
     29 H13          3.9190     1.7460     1.5820 ha         1 EAT       0.118000
     30 H14          5.8400     0.6490     0.4580 ha         1 EAT       0.113000
     31 H15          5.4910    -1.1600    -1.1670 ha         1 EAT       0.114000
     32 H16          3.2140    -1.9530    -1.7290 ha         1 EAT       0.127000
@<TRIPOS>BOND
     1     1     2 1   
     2     1    18 1   
     3     2     3 1   
     4     2     8 1   
     5     2    19 1   
     6     3     4 1   
     7     3     5 1   
     8     3    20 1   
     9     4    21 1   
    10     5     6 1   
    11     5     7 1   
    12     5    22 1   
    13     6    23 1   
    14     6    24 1   
    15     6    25 1   
    16     7     8 1   
    17     7    26 1   
    18     8     9 1   
    19     8    27 1   
    20     9    10 1   
    21     9    17 2   
    22    10    11 1   
    23    10    28 1   
    24    11    12 ar  
    25    11    16 ar  
    26    12    13 ar  
    27    12    29 1   
    28    13    14 ar  
    29    13    30 1   
    30    14    15 ar  
    31    14    31 1   
    32    15    16 ar  
    33    15    32 1   
    34    16    17 1   
@<TRIPOS>SUBSTRUCTURE
     1 EAT         1 TEMP              0 ****  ****    0 ROOT
