@<TRIPOS>MOLECULE
EAT
   32    34     1     0     0
SMALL
No Charge or Current Charge


@<TRIPOS>ATOM
      1 OAD         -1.7140     2.2310    -0.2040 oh         1 EAT      -0.655000
      2 CAG         -1.8150     0.8150    -0.4370 c5         1 EAT       0.101300
      3 CAA         -3.2830     0.3060    -0.3440 c5         1 EAT       0.131300
      4 OAC         -3.9530     0.8380     0.8120 oh         1 EAT      -0.641000
      5 CAF         -2.9870    -1.2330    -0.2700 c5         1 EAT       0.179500
      6 CAB         -4.1840    -2.1170     0.1380 c3         1 EAT      -0.072100
      7 NAH         -1.8410    -1.3810     0.6680 n7         1 EAT      -0.856400
      8 CAE         -1.1310    -0.0490     0.6780 c5         1 EAT       0.171200
      9 CAP          0.3770    -0.1420     0.4290 cc         1 EAT       0.397800
     10 NAQ          1.2060     0.9740     0.5410 na         1 EAT      -0.297600
     11 CAM          2.4690     0.5600     0.2510 ca         1 EAT      -0.078200
     12 CAN          3.6690     1.2800     0.2170 ca         1 EAT      -0.113000
     13 CAI          4.8410     0.5730    -0.1250 ca         1 EAT      -0.093000
     14 CAJ          4.7780    -0.8110    -0.4190 ca         1 EAT      -0.134000
     15 CAK          3.5440    -1.4980    -0.3740 ca         1 EAT      -0.050000
     16 CAL          2.3920    -0.7740    -0.0310 ca         1 EAT       0.069400
     17 NAO          1.0840    -1.2400     0.0730 nd         1 EAT      -0.592100
     18 H1          -1.9900     2.6860    -1.0330 ho         1 EAT       0.453000
     19 H2          -1.3930     0.5600    -1.4200 h1         1 EAT       0.062700
     20 H3          -3.8480     0.5530    -1.2540 h1         1 EAT       0.046700
     21 H4          -3.4810     1.6770     1.0120 ho         1 EAT       0.451000
     22 H5          -2.6670    -1.5680    -1.2680 h1         1 EAT       0.031700
     23 H6          -5.0240    -1.9790    -0.5530 hc         1 EAT       0.043700
     24 H7          -3.9110    -3.1790     0.1230 hc         1 EAT       0.043700
     25 H8          -4.5360    -1.8760     1.1480 hc         1 EAT       0.043700
     26 H9          -1.1940    -2.0940     0.3020 hn         1 EAT       0.438000
     27 H11         -1.2870     0.4300     1.6550 h1         1 EAT       0.084700
     28 H12          0.9010     1.9130     0.7630 hn         1 EAT       0.362000
     29 H13          3.6990     2.3430     0.4460 ha         1 EAT       0.118000
     30 H14          5.7960     1.0930    -0.1620 ha         1 EAT       0.113000
     31 H15          5.6860    -1.3500    -0.6820 ha         1 EAT       0.114000
     32 H16          3.4850    -2.5600    -0.5980 ha         1 EAT       0.127000
@<TRIPOS>BOND
     1     1     2 1   
     2     1    18 1   
     3     2     3 1   
     4     2     8 1   
     5     2    19 1   
     6     3     4 1   
     7     3     5 1   
     8     3    20 1   
     9     4    21 1   
    10     5     6 1   
    11     5     7 1   
    12     5    22 1   
    13     6    23 1   
    14     6    24 1   
    15     6    25 1   
    16     7     8 1   
    17     7    26 1   
    18     8     9 1   
    19     8    27 1   
    20     9    10 1   
    21     9    17 2   
    22    10    11 1   
    23    10    28 1   
    24    11    12 ar  
    25    11    16 ar  
    26    12    13 ar  
    27    12    29 1   
    28    13    14 ar  
    29    13    30 1   
    30    14    15 ar  
    31    14    31 1   
    32    15    16 ar  
    33    15    32 1   
    34    16    17 1   
@<TRIPOS>SUBSTRUCTURE
     1 EAT         1 TEMP              0 ****  ****    0 ROOT
