@<TRIPOS>MOLECULE
EAU
   46    48     1     0     0
SMALL
abcg2


@<TRIPOS>ATOM
      1 N1          -0.1840     2.0870    -0.6110 nb         1 EAU      -0.852000
      2 C2          -0.8370     1.0370    -0.1400 ca         1 EAU       0.690900
      3 O2          -1.5870    -1.9100    -0.7120 os         1 EAU      -0.230000
      4 N3           1.7120     3.1530    -1.2730 nv         1 EAU      -1.055900
      5 C4           1.8650     0.9160    -0.3390 ca         1 EAU       0.086500
      6 N5           3.8080    -0.4020    -0.0120 ns         1 EAU      -0.433400
      7 C6           3.3390     0.8260    -0.3760 c          1 EAU       0.556600
      8 C7          -2.8890     2.3370    -0.3530 c3         1 EAU       0.221800
      9 C8          -4.1330     1.9920    -1.1570 c3         1 EAU      -0.083400
     10 C9          -5.1660     1.1180    -0.4520 c3         1 EAU      -0.068900
     11 C10         -4.6860    -0.3140    -0.2140 c3         1 EAU      -0.068900
     12 O1           4.0430     1.7660    -0.7090 o          1 EAU      -0.581100
     13 C13          5.1280    -0.8440     0.0380 c2         1 EAU       0.661800
     14 N7           5.1870    -2.2110     0.1540 nv         1 EAU      -1.083200
     15 N6           6.1070    -0.0320     0.0460 n2         1 EAU      -0.825100
     16 C3           1.1400     2.0660    -0.7470 ca         1 EAU       0.696900
     17 N2           1.1890    -0.1700     0.0080 nb         1 EAU      -0.584000
     18 C1          -0.1200    -0.1860     0.0810 ca         1 EAU       0.142000
     19 C5          -0.7390    -1.4980     0.2590 cc         1 EAU       0.104000
     20 C14         -0.5530    -2.4950     1.1600 cd         1 EAU      -0.167000
     21 C15         -1.3520    -3.5910     0.7140 cd         1 EAU      -0.192000
     22 C16         -1.9560    -3.1750    -0.4230 cc         1 EAU       0.117900
     23 N4          -2.1640     1.1620     0.1210 nh         1 EAU      -0.763300
     24 C12         -2.7610     0.5250     1.2940 c3         1 EAU       0.221800
     25 C11         -3.8580    -0.5150     1.0490 c3         1 EAU      -0.083400
     26 H1           1.1420     3.9580    -1.4660 hn         1 EAU       0.517000
     27 H2           2.7140     3.2370    -1.2920 hn         1 EAU       0.517000
     28 H3           3.0810    -1.0710     0.2110 hn         1 EAU       0.350500
     29 H4          -2.2230     2.9380    -0.9640 h1         1 EAU       0.051700
     30 H5          -3.1670     2.9530     0.5100 h1         1 EAU       0.051700
     31 H6          -4.5940     2.9410    -1.4460 hc         1 EAU       0.046200
     32 H7          -3.8310     1.4990    -2.0870 hc         1 EAU       0.046200
     33 H8          -5.4730     1.5810     0.4930 hc         1 EAU       0.040450
     34 H9          -6.0620     1.0900    -1.0770 hc         1 EAU       0.040450
     35 H10         -5.5480    -0.9830    -0.1560 hc         1 EAU       0.040450
     36 H11         -4.1140    -0.6410    -1.0860 hc         1 EAU       0.040450
     37 H12          4.4660    -2.7510    -0.3000 hn         1 EAU       0.458500
     38 H13          6.1010    -2.6190     0.0380 hn         1 EAU       0.458500
     39 H14          6.9820    -0.5460     0.0500 hn         1 EAU       0.378400
     40 H15          0.0710    -2.4520     2.0380 ha         1 EAU       0.146000
     41 H16         -1.4610    -4.5570     1.1810 ha         1 EAU       0.141000
     42 H17         -2.6470    -3.6450    -1.1040 h4         1 EAU       0.051100
     43 H18         -1.9760     0.0960     1.9160 h1         1 EAU       0.051700
     44 H19         -3.1840     1.3420     1.8870 h1         1 EAU       0.051700
     45 H20         -4.5190    -0.4750     1.9200 hc         1 EAU       0.046200
     46 H21         -3.4420    -1.5230     1.0440 hc         1 EAU       0.046200
@<TRIPOS>BOND
     1     1     2 ar  
     2     1    16 ar  
     3     2    18 ar  
     4     2    23 1   
     5     3    19 1   
     6     3    22 1   
     7     4    16 1   
     8     4    26 1   
     9     4    27 1   
    10     5     7 1   
    11     5    16 ar  
    12     5    17 ar  
    13     6     7 1   
    14     6    13 1   
    15     6    28 1   
    16     7    12 2   
    17     8     9 1   
    18     8    23 1   
    19     8    29 1   
    20     8    30 1   
    21     9    10 1   
    22     9    31 1   
    23     9    32 1   
    24    10    11 1   
    25    10    33 1   
    26    10    34 1   
    27    11    25 1   
    28    11    35 1   
    29    11    36 1   
    30    13    14 1   
    31    13    15 2   
    32    14    37 1   
    33    14    38 1   
    34    15    39 1   
    35    17    18 ar  
    36    18    19 1   
    37    19    20 2   
    38    20    21 1   
    39    20    40 1   
    40    21    22 2   
    41    21    41 1   
    42    22    42 1   
    43    23    24 1   
    44    24    25 1   
    45    24    43 1   
    46    24    44 1   
    47    25    45 1   
    48    25    46 1   
@<TRIPOS>SUBSTRUCTURE
     1 EAU         1 TEMP              0 ****  ****    0 ROOT
