@<TRIPOS>MOLECULE
EAU
   46    48     1     0     0
SMALL
No Charge or Current Charge


@<TRIPOS>ATOM
      1 N1          -0.1340     2.1020    -0.1150 nb         1 EAU      -0.852000
      2 C2          -0.7870     0.9170    -0.1100 ca         1 EAU       0.690900
      3 O2          -2.1520    -1.7810    -0.4430 os         1 EAU      -0.230000
      4 N3           1.6680     3.2580    -0.0860 nv         1 EAU      -1.055900
      5 C4           1.9210     0.7840    -0.0670 ca         1 EAU       0.086500
      6 N5           4.0070    -0.4550     0.0390 ns         1 EAU      -0.433400
      7 C6           3.4390     0.7910    -0.0730 c          1 EAU       0.556600
      8 C7          -2.8430     1.7650    -1.2050 c3         1 EAU       0.221800
      9 C8          -4.1980     1.1490    -1.6160 c3         1 EAU      -0.083400
     10 C9          -5.2630     1.0460    -0.4930 c3         1 EAU      -0.068900
     11 C10         -4.9580    -0.0450     0.5620 c3         1 EAU      -0.068900
     12 O1           4.1100     1.8100    -0.2000 o          1 EAU      -0.581100
     13 C13          5.3210    -0.7890     0.1100 c2         1 EAU       0.661800
     14 N7           5.4690    -2.0290    -0.3680 nv         1 EAU      -1.083200
     15 N6           6.2070    -0.1810     0.7610 n2         1 EAU      -0.825100
     16 C3           1.1890     2.0100    -0.0910 ca         1 EAU       0.696900
     17 N2           1.2610    -0.4220    -0.0560 nb         1 EAU      -0.584000
     18 C1          -0.1070    -0.3560    -0.0850 ca         1 EAU       0.142000
     19 C5          -0.8330    -1.6400    -0.0810 cc         1 EAU       0.104000
     20 C14         -0.2660    -2.8640     0.1580 cd         1 EAU      -0.167000
     21 C15         -1.2960    -3.8130    -0.0180 cd         1 EAU      -0.192000
     22 C16         -2.4290    -3.1290    -0.3760 cc         1 EAU       0.117900
     23 N4          -2.1800     1.0940    -0.0690 nh         1 EAU      -0.763300
     24 C12         -2.8040     1.3240     1.2470 c3         1 EAU       0.221800
     25 C11         -3.8990     0.3080     1.6410 c3         1 EAU      -0.083400
     26 H1           1.0040     3.9500    -0.4070 hn         1 EAU       0.517000
     27 H2           2.6390     3.3750    -0.3620 hn         1 EAU       0.517000
     28 H3           3.3490    -1.2170     0.0860 hn         1 EAU       0.350500
     29 H4          -2.1860     1.7360    -2.0850 h1         1 EAU       0.051700
     30 H5          -2.9990     2.8260    -0.9640 h1         1 EAU       0.051700
     31 H6          -4.6090     1.7560    -2.4310 hc         1 EAU       0.046200
     32 H7          -4.0200     0.1520    -2.0370 hc         1 EAU       0.046200
     33 H8          -5.4000     2.0200    -0.0060 hc         1 EAU       0.040450
     34 H9          -6.2230     0.8000    -0.9640 hc         1 EAU       0.040450
     35 H10         -5.8910    -0.3040     1.0770 hc         1 EAU       0.040450
     36 H11         -4.6490    -0.9580     0.0400 hc         1 EAU       0.040450
     37 H12          4.8870    -2.2270    -1.1750 hn         1 EAU       0.458500
     38 H13          6.4300    -2.3310    -0.4790 hn         1 EAU       0.458500
     39 H14          7.0630    -0.7450     0.7470 hn         1 EAU       0.378400
     40 H15          0.7660    -3.0620     0.4290 ha         1 EAU       0.146000
     41 H16         -1.2130    -4.8890     0.0980 ha         1 EAU       0.141000
     42 H17         -3.4340    -3.4540    -0.6090 h4         1 EAU       0.051100
     43 H18         -2.0370     1.3150     2.0330 h1         1 EAU       0.051700
     44 H19         -3.2450     2.3310     1.2690 h1         1 EAU       0.051700
     45 H20         -4.4150     0.7040     2.5240 hc         1 EAU       0.046200
     46 H21         -3.4140    -0.6210     1.9650 hc         1 EAU       0.046200
@<TRIPOS>BOND
     1     1     2 ar  
     2     1    16 ar  
     3     2    18 ar  
     4     2    23 1   
     5     3    19 1   
     6     3    22 1   
     7     4    16 1   
     8     4    26 1   
     9     4    27 1   
    10     5     7 1   
    11     5    16 ar  
    12     5    17 ar  
    13     6     7 1   
    14     6    13 1   
    15     6    28 1   
    16     7    12 2   
    17     8     9 1   
    18     8    23 1   
    19     8    29 1   
    20     8    30 1   
    21     9    10 1   
    22     9    31 1   
    23     9    32 1   
    24    10    11 1   
    25    10    33 1   
    26    10    34 1   
    27    11    25 1   
    28    11    35 1   
    29    11    36 1   
    30    13    14 1   
    31    13    15 2   
    32    14    37 1   
    33    14    38 1   
    34    15    39 1   
    35    17    18 ar  
    36    18    19 1   
    37    19    20 2   
    38    20    21 1   
    39    20    40 1   
    40    21    22 2   
    41    21    41 1   
    42    22    42 1   
    43    23    24 1   
    44    24    25 1   
    45    24    43 1   
    46    24    44 1   
    47    25    45 1   
    48    25    46 1   
@<TRIPOS>SUBSTRUCTURE
     1 EAU         1 TEMP              0 ****  ****    0 ROOT
