@<TRIPOS>MOLECULE
EAV
   63    67     1     0     0
SMALL
No Charge or Current Charge


@<TRIPOS>ATOM
      1 N1           0.3210     2.3260    -0.4090 ns         1 EAV      -0.504900
      2 N3          -7.2210     0.1690    -0.2250 na         1 EAV      -0.222700
      3 C4           5.7930     0.0530     0.1340 ca         1 EAV      -0.104800
      4 C5           4.8350     1.0410     0.5500 cc         1 EAV      -0.148400
      5 C6           3.8100     1.7380    -0.3120 c3         1 EAV      -0.038200
      6 C7           2.4420     1.0100    -0.3670 c3         1 EAV       0.091500
      7 C8           1.3860     1.8670    -1.1570 c          1 EAV       0.604100
      8 C10         -1.8660     2.2290    -1.6000 c6         1 EAV      -0.092400
      9 C13         -5.2030     0.6280     0.7710 cc         1 EAV      -0.147400
     10 C15         -6.4810    -0.9960    -0.1570 ca         1 EAV      -0.050200
     11 C17         -5.9210    -3.3260    -0.4440 ca         1 EAV      -0.088000
     12 C20         -5.2690    -0.7660     0.4310 ca         1 EAV      -0.089800
     13 C21         -2.2440     2.9950     1.2030 c6         1 EAV       0.166800
     14 C22         -1.4800     3.9200     0.2230 c6         1 EAV      -0.092400
     15 C24          6.5040    -0.3280     1.2360 ca         1 EAV      -0.043200
     16 N            2.6150    -0.4030    -0.8430 n8         1 EAV      -0.990200
     17 O            1.4840     2.1050    -2.3560 o          1 EAV      -0.611100
     18 C1           7.8110    -1.8600    -0.1030 ca         1 EAV      -0.054300
     19 C11         -2.6120     1.3390    -0.5780 c6         1 EAV       0.166800
     20 C14         -6.4120     1.1780     0.3540 cd         1 EAV      -0.130100
     21 C16         -6.8460    -2.2720    -0.6100 ca         1 EAV      -0.117000
     22 C18         -4.6670    -3.0840     0.1620 ca         1 EAV       0.093000
     23 C19         -4.3260    -1.7900     0.6080 ca         1 EAV      -0.055000
     24 C2           7.0750    -1.4540    -1.2440 ca         1 EAV      -0.136000
     25 C23          5.0350     1.2110     1.9170 cd         1 EAV      -0.157100
     26 C25          7.5250    -1.2860     1.1560 ca         1 EAV      -0.128000
     27 C3           6.0540    -0.4860    -1.1340 ca         1 EAV      -0.064000
     28 C9          -0.8030     3.1250    -0.9190 c6         1 EAV       0.120700
     29 N2          -3.2470     2.1570     0.4940 n3         1 EAV      -0.730600
     30 N4           6.0750     0.3570     2.3570 na         1 EAV      -0.221700
     31 Cl          -3.5220    -4.4050     0.3580 cl         1 EAV      -0.219000
     32 H1           0.3160     2.0660     0.5700 hn         1 EAV       0.311500
     33 H2          -8.1520     0.2810    -0.6160 hn         1 EAV       0.352000
     34 H3           3.6500     2.7530     0.0720 hc         1 EAV       0.058200
     35 H4           4.1990     1.8610    -1.3300 hc         1 EAV       0.058200
     36 H5           2.0820     0.9460     0.6690 h1         1 EAV       0.056700
     37 H6          -1.3990     1.6010    -2.3690 hc         1 EAV       0.058450
     38 H7          -2.5960     2.8620    -2.1230 hc         1 EAV       0.058450
     39 H8          -6.1730    -4.3270    -0.7850 ha         1 EAV       0.127000
     40 H9          -1.5240     2.3570     1.7380 h1         1 EAV       0.033700
     41 H10         -2.7390     3.6220     1.9590 h1         1 EAV       0.033700
     42 H11         -2.1840     4.6440    -0.2070 hc         1 EAV       0.058450
     43 H12         -0.7310     4.5080     0.7700 hc         1 EAV       0.058450
     44 H13          2.8650    -0.3870    -1.8390 hn         1 EAV       0.411500
     45 H14          3.4610    -0.7800    -0.3960 hn         1 EAV       0.411500
     46 H16          9.8700    -2.4250    -0.4800 hc         1 EAV       0.042033
     47 H17          9.0460    -3.4630     0.6960 hc         1 EAV       0.042033
     48 H18          8.6850    -3.6230    -1.0280 hc         1 EAV       0.042033
     49 H19         -3.3700     0.7580    -1.1220 h1         1 EAV       0.033700
     50 H20         -1.9060     0.6170    -0.1400 h1         1 EAV       0.033700
     51 H23         -6.7470     2.2100     0.4250 h4         1 EAV       0.225000
     52 H24         -7.8130    -2.4470    -1.0780 ha         1 EAV       0.118000
     53 H25         -3.3620    -1.5980     1.0710 ha         1 EAV       0.128000
     54 H26          7.2980    -1.8870    -2.2170 ha         1 EAV       0.112000
     55 H27          4.5090     1.8690     2.6050 h4         1 EAV       0.210000
     56 H28          8.0830    -1.5770     2.0430 ha         1 EAV       0.112000
     57 H29          5.4930    -0.1680    -2.0090 ha         1 EAV       0.116000
     58 H30         -0.4070     3.8380    -1.6580 h1         1 EAV       0.069700
     59 H32          6.4330     0.2650     3.3030 hn         1 EAV       0.350000
     60 C12         -4.0540     1.3460     1.4360 c3         1 EAV       0.247000
     61 C            8.9130    -2.9000    -0.2360 c3         1 EAV      -0.046800
     62 H21         -4.4740     1.9960     2.2170 h1         1 EAV       0.036700
     63 H22         -3.4160     0.6110     1.9450 h1         1 EAV       0.036700
@<TRIPOS>BOND
     1     1     7 1   
     2     1    28 1   
     3     1    32 1   
     4     2    10 1   
     5     2    20 1   
     6     2    33 1   
     7     3     4 1   
     8     3    15 ar  
     9     3    27 ar  
    10     4     5 1   
    11     4    25 2   
    12     5     6 1   
    13     5    34 1   
    14     5    35 1   
    15     6     7 1   
    16     6    16 1   
    17     6    36 1   
    18     7    17 2   
    19     8    19 1   
    20     8    28 1   
    21     8    37 1   
    22     8    38 1   
    23     9    12 1   
    24     9    20 2   
    25     9    60 1   
    26    10    12 ar  
    27    10    21 ar  
    28    11    21 ar  
    29    11    22 ar  
    30    11    39 1   
    31    12    23 ar  
    32    13    14 1   
    33    13    29 1   
    34    13    40 1   
    35    13    41 1   
    36    14    28 1   
    37    14    42 1   
    38    14    43 1   
    39    15    26 ar  
    40    15    30 1   
    41    16    44 1   
    42    16    45 1   
    43    18    24 ar  
    44    18    26 ar  
    45    18    61 1   
    46    19    29 1   
    47    19    49 1   
    48    19    50 1   
    49    20    51 1   
    50    21    52 1   
    51    22    23 ar  
    52    22    31 1   
    53    23    53 1   
    54    24    27 ar  
    55    24    54 1   
    56    25    30 1   
    57    25    55 1   
    58    26    56 1   
    59    27    57 1   
    60    28    58 1   
    61    29    60 1   
    62    30    59 1   
    63    46    61 1   
    64    47    61 1   
    65    48    61 1   
    66    60    62 1   
    67    60    63 1   
@<TRIPOS>SUBSTRUCTURE
     1 EAV         1 TEMP              0 ****  ****    0 ROOT
