@<TRIPOS>MOLECULE
EAV
   63    67     1     0     0
SMALL
abcg2


@<TRIPOS>ATOM
      1 N1           0.5150     1.9200    -0.2360 ns         1 EAV      -0.504900
      2 N3          -6.8960     0.5130    -1.0460 na         1 EAV      -0.222700
      3 C4           6.0690     0.3380     0.0820 ca         1 EAV      -0.104800
      4 C5           4.9850     1.0880     0.6480 cc         1 EAV      -0.148400
      5 C6           3.8500     1.7300    -0.0770 c3         1 EAV      -0.038200
      6 C7           2.6530     0.7750    -0.2730 c3         1 EAV       0.091500
      7 C8           1.5470     1.5320    -0.9950 c          1 EAV       0.604100
      8 C10         -1.5830     1.8900    -1.5490 c6         1 EAV      -0.092400
      9 C13         -5.1650     0.4110     0.3750 cc         1 EAV      -0.147400
     10 C15         -7.0280    -0.6740    -0.3940 ca         1 EAV      -0.050200
     11 C17         -7.8640    -2.7910     0.2900 ca         1 EAV      -0.088000
     12 C20         -5.9500    -0.7750     0.5160 ca         1 EAV      -0.089800
     13 C21         -2.1290     2.3630     1.2400 c6         1 EAV       0.166800
     14 C22         -1.3230     3.3720     0.4330 c6         1 EAV      -0.092400
     15 C24          6.8760    -0.1050     1.1510 ca         1 EAV      -0.043200
     16 N            2.9370    -0.4320    -1.0230 n8         1 EAV      -0.990200
     17 O            1.6400     1.7930    -2.1880 o          1 EAV      -0.611100
     18 C1           8.3920    -1.1870    -0.3430 ca         1 EAV      -0.054300
     19 C11         -2.3640     0.9350    -0.6640 c6         1 EAV       0.166800
     20 C14         -5.7830     1.1610    -0.5870 cd         1 EAV      -0.130100
     21 C16         -7.9890    -1.6750    -0.5130 ca         1 EAV      -0.117000
     22 C18         -6.7960    -2.8940     1.1920 ca         1 EAV       0.093000
     23 C19         -5.8390    -1.9120     1.3250 ca         1 EAV      -0.055000
     24 C2           7.5940    -0.7430    -1.4190 ca         1 EAV      -0.136000
     25 C23          5.1800     1.0630     2.0010 cd         1 EAV      -0.157100
     26 C25          8.0310    -0.8640     0.9530 ca         1 EAV      -0.128000
     27 C3           6.4510     0.0020    -1.2240 ca         1 EAV      -0.064000
     28 C9          -0.5900     2.7230    -0.7370 c6         1 EAV       0.120700
     29 N2          -3.0640     1.6530     0.3880 n3         1 EAV      -0.730600
     30 N4           6.3070     0.3500     2.3030 na         1 EAV      -0.221700
     31 CL          -6.6850    -4.3250     2.1790 cl         1 EAV      -0.219000
     32 H1           0.5120     1.6490     0.7350 hn         1 EAV       0.311500
     33 H2          -7.5070     0.8610    -1.7650 hn         1 EAV       0.352000
     34 H3           3.5120     2.6120     0.4740 hc         1 EAV       0.058200
     35 H4           4.1810     2.0860    -1.0580 hc         1 EAV       0.058200
     36 H5           2.3060     0.4740     0.7210 h1         1 EAV       0.056700
     37 H6          -1.0660     1.3370    -2.3340 hc         1 EAV       0.058450
     38 H7          -2.2800     2.5720    -2.0430 hc         1 EAV       0.058450
     39 H8          -8.5920    -3.5880     0.2220 ha         1 EAV       0.127000
     40 H9          -1.4530     1.6670     1.7700 h1         1 EAV       0.033700
     41 H10         -2.6860     2.8940     2.0150 h1         1 EAV       0.033700
     42 H11         -2.0030     4.1260     0.0300 hc         1 EAV       0.058450
     43 H12         -0.6190     3.8940     1.0860 hc         1 EAV       0.058450
     44 H13          3.2800    -0.1890    -1.9450 hn         1 EAV       0.411500
     45 H14          3.6810    -0.9460    -0.5660 hn         1 EAV       0.411500
     46 H16         10.3480    -1.4380    -1.2130 hc         1 EAV       0.042033
     47 H17         10.1200    -2.3040     0.3030 hc         1 EAV       0.042033
     48 H18          9.3870    -2.9040    -1.1830 hc         1 EAV       0.042033
     49 H19         -3.0930     0.3940    -1.2700 h1         1 EAV       0.033700
     50 H20         -1.6860     0.1740    -0.2370 h1         1 EAV       0.033700
     51 H23         -5.5000     2.1190    -0.9910 h4         1 EAV       0.225000
     52 H24         -8.8120    -1.5910    -1.2110 ha         1 EAV       0.118000
     53 H25         -5.0280    -2.0200     2.0340 ha         1 EAV       0.128000
     54 H26          7.8930    -1.0000    -2.4290 ha         1 EAV       0.112000
     55 H27          4.5910     1.5140     2.7850 h4         1 EAV       0.210000
     56 H28          8.6320    -1.1910     1.7930 ha         1 EAV       0.112000
     57 H29          5.8630     0.3250    -2.0750 ha         1 EAV       0.116000
     58 H30         -0.1690     3.5050    -1.3720 h1         1 EAV       0.069700
     59 H32          6.6680     0.2080     3.2310 hn         1 EAV       0.350000
     60 C12         -3.9390     0.7810     1.1460 c3         1 EAV       0.247000
     61 C            9.6250    -2.0000    -0.6190 c3         1 EAV      -0.046800
     62 H21         -4.2260     1.3040     2.0640 h1         1 EAV       0.036700
     63 H22         -3.4190    -0.1350     1.4790 h1         1 EAV       0.036700
@<TRIPOS>BOND
     1     1     7 1   
     2     1    28 1   
     3     1    32 1   
     4     2    10 1   
     5     2    20 1   
     6     2    33 1   
     7     3     4 1   
     8     3    15 ar  
     9     3    27 ar  
    10     4     5 1   
    11     4    25 2   
    12     5     6 1   
    13     5    34 1   
    14     5    35 1   
    15     6     7 1   
    16     6    16 1   
    17     6    36 1   
    18     7    17 2   
    19     8    19 1   
    20     8    28 1   
    21     8    37 1   
    22     8    38 1   
    23     9    12 1   
    24     9    20 2   
    25     9    60 1   
    26    10    12 ar  
    27    10    21 ar  
    28    11    21 ar  
    29    11    22 ar  
    30    11    39 1   
    31    12    23 ar  
    32    13    14 1   
    33    13    29 1   
    34    13    40 1   
    35    13    41 1   
    36    14    28 1   
    37    14    42 1   
    38    14    43 1   
    39    15    26 ar  
    40    15    30 1   
    41    16    44 1   
    42    16    45 1   
    43    18    24 ar  
    44    18    26 ar  
    45    18    61 1   
    46    19    29 1   
    47    19    49 1   
    48    19    50 1   
    49    20    51 1   
    50    21    52 1   
    51    22    23 ar  
    52    22    31 1   
    53    23    53 1   
    54    24    27 ar  
    55    24    54 1   
    56    25    30 1   
    57    25    55 1   
    58    26    56 1   
    59    27    57 1   
    60    28    58 1   
    61    29    60 1   
    62    30    59 1   
    63    46    61 1   
    64    47    61 1   
    65    48    61 1   
    66    60    62 1   
    67    60    63 1   
@<TRIPOS>SUBSTRUCTURE
     1 EAV         1 TEMP              0 ****  ****    0 ROOT
