@<TRIPOS>MOLECULE
EAW
   29    30     1     0     0
SMALL
No Charge or Current Charge


@<TRIPOS>ATOM
      1 C1           0.8690     0.8270     0.5310 ca         1 EAW       0.288000
      2 C2           1.7200     0.1950    -0.4040 ca         1 EAW      -0.060900
      3 C3           2.9360     0.7950    -0.7760 ca         1 EAW      -0.070000
      4 C4           3.3170     2.0230    -0.2110 ca         1 EAW      -0.121000
      5 C5           2.4870     2.6490     0.7340 ca         1 EAW      -0.080000
      6 S1          -1.8090     0.9040     0.8940 s6         1 EAW       1.299200
      7 C10         -2.1400     0.3150    -1.7360 c5         1 EAW       0.223800
      8 C6           1.2710     2.0490     1.1060 ca         1 EAW      -0.114000
      9 C7          -3.9920    -0.0290    -0.4110 c5         1 EAW       0.223800
     10 C8          -4.2560    -0.8800    -1.6850 c5         1 EAW      -0.090400
     11 C9          -2.9250    -0.7790    -2.4930 c5         1 EAW      -0.090400
     12 N1          -0.3230     0.2180     0.9040 nu         1 EAW      -0.904100
     13 N5          -2.5210     0.0030    -0.3480 n3         1 EAW      -0.808500
     14 O1          -2.4370     0.5150     2.1550 o          1 EAW      -0.540500
     15 O2          -1.7050     2.2990     0.4670 o          1 EAW      -0.540500
     16 Br1          1.2520    -1.4970    -1.1890 br         1 EAW      -0.101100
     17 H1           3.5850     0.3070    -1.5000 ha         1 EAW       0.131000
     18 H2           4.2590     2.4860    -0.4980 ha         1 EAW       0.122000
     19 H3           2.7860     3.5950     1.1810 ha         1 EAW       0.125000
     20 H5          -2.4650     1.3230    -2.0330 h1         1 EAW       0.057450
     21 H6           0.6420     2.5330     1.8480 ha         1 EAW       0.153000
     22 H7          -4.4080     0.9830    -0.5220 h1         1 EAW       0.057450
     23 H8          -4.4430    -0.4820     0.4830 h1         1 EAW       0.057450
     24 H9          -4.4790    -1.9220    -1.4280 hc         1 EAW       0.056450
     25 H10         -5.1140    -0.4950    -2.2470 hc         1 EAW       0.056450
     26 H11         -3.0850    -0.5210    -3.5450 hc         1 EAW       0.056450
     27 H12         -2.3810    -1.7310    -2.4690 hc         1 EAW       0.056450
     28 H13         -0.5480    -0.6120     0.3730 hn         1 EAW       0.501000
     29 H4          -1.0590     0.2420    -1.9160 h1         1 EAW       0.057450
@<TRIPOS>BOND
     1     1     2 ar  
     2     1     8 ar  
     3     1    12 1   
     4     2     3 ar  
     5     2    16 1   
     6     3     4 ar  
     7     3    17 1   
     8     4     5 ar  
     9     4    18 1   
    10     5     8 ar  
    11     5    19 1   
    12     6    12 1   
    13     6    13 1   
    14     6    14 2   
    15     6    15 2   
    16     7    11 1   
    17     7    13 1   
    18     7    20 1   
    19     7    29 1   
    20     8    21 1   
    21     9    10 1   
    22     9    13 1   
    23     9    22 1   
    24     9    23 1   
    25    10    11 1   
    26    10    24 1   
    27    10    25 1   
    28    11    26 1   
    29    11    27 1   
    30    12    28 1   
@<TRIPOS>SUBSTRUCTURE
     1 EAW         1 TEMP              0 ****  ****    0 ROOT
