@<TRIPOS>MOLECULE
EAW
   29    30     1     0     0
SMALL
bcc


@<TRIPOS>ATOM
      1 C1           0.5300     0.8470     0.5780 ca         1 EAW       0.149600
      2 C2           1.3280     0.4650    -0.5050 ca         1 EAW      -0.060900
      3 C3           1.9780     1.4080    -1.2880 ca         1 EAW      -0.088000
      4 C4           1.8280     2.7570    -1.0090 ca         1 EAW      -0.139000
      5 C5           1.0550     3.1540     0.0720 ca         1 EAW      -0.098000
      6 S1          -1.8170    -0.1200     1.4720 s6         1 EAW       1.440800
      7 C10         -2.2670    -1.4850    -0.7990 c5         1 EAW       0.223800
      8 C6           0.4280     2.2090     0.8650 ca         1 EAW      -0.132000
      9 C7          -2.7330     0.9180    -0.8550 c5         1 EAW       0.223800
     10 C8          -3.0870     0.2740    -2.1900 c5         1 EAW      -0.090400
     11 C9          -2.2000    -0.9670    -2.2300 c5         1 EAW      -0.090400
     12 N1          -0.1400    -0.0840     1.3930 nu         1 EAW      -0.710500
     13 N5          -2.4420    -0.2550    -0.0140 n3         1 EAW      -0.808500
     14 O1          -2.0850    -1.3430     2.2000 o          1 EAW      -0.611300
     15 O2          -2.2460     1.1650     1.9860 o          1 EAW      -0.611300
     16 BR1          1.5830    -1.3600    -0.9220 br         1 EAW      -0.101100
     17 H1           2.5950     1.0960    -2.1200 ha         1 EAW       0.149000
     18 H2           2.3290     3.4880    -1.6290 ha         1 EAW       0.140000
     19 H3           0.9520     4.2030     0.3140 ha         1 EAW       0.143000
     20 H5          -1.3670    -2.0320    -0.5140 h1         1 EAW       0.057450
     21 H6          -0.1420     2.5250     1.7260 ha         1 EAW       0.171000
     22 H7          -1.8640     1.5710    -0.9580 h1         1 EAW       0.057450
     23 H8          -3.5530     1.5000    -0.4370 h1         1 EAW       0.057450
     24 H9          -4.1400    -0.0130    -2.2030 hc         1 EAW       0.056450
     25 H10         -2.9150     0.9560    -3.0210 hc         1 EAW       0.056450
     26 H11         -1.1750    -0.6880    -2.4810 hc         1 EAW       0.056450
     27 H12         -2.5330    -1.7130    -2.9500 hc         1 EAW       0.056450
     28 H13          0.2560    -1.0160     1.4340 hn         1 EAW       0.445800
     29 H4          -3.1220    -2.1460    -0.6510 h1         1 EAW       0.057450
@<TRIPOS>BOND
     1     1     2 ar  
     2     1     8 ar  
     3     1    12 1   
     4     2     3 ar  
     5     2    16 1   
     6     3     4 ar  
     7     3    17 1   
     8     4     5 ar  
     9     4    18 1   
    10     5     8 ar  
    11     5    19 1   
    12     6    12 1   
    13     6    13 1   
    14     6    14 2   
    15     6    15 2   
    16     7    11 1   
    17     7    13 1   
    18     7    20 1   
    19     7    29 1   
    20     8    21 1   
    21     9    10 1   
    22     9    13 1   
    23     9    22 1   
    24     9    23 1   
    25    10    11 1   
    26    10    24 1   
    27    10    25 1   
    28    11    26 1   
    29    11    27 1   
    30    12    28 1   
@<TRIPOS>SUBSTRUCTURE
     1 EAW         1 TEMP              0 ****  ****    0 ROOT
