@<TRIPOS>MOLECULE
EAX
   16    15     1     0     0
SMALL
No Charge or Current Charge


@<TRIPOS>ATOM
      1 OAB         -3.3930     0.1550    -0.3570 oh         1 EAX      -0.716000
      2 OAA          1.7700     1.3890     0.1140 o          1 EAX      -0.719500
      3 CAG          1.6930     0.1710     0.0150 c          1 EAX       0.698000
      4 OAC          2.5890    -0.5350    -0.4300 o          1 EAX      -0.719500
      5 CAI          0.3480    -0.5420     0.4100 c3         1 EAX      -0.016700
      6 OAE          0.3630    -1.9430     0.0040 oh         1 EAX      -0.753000
      7 CAH         -0.9070     0.1950    -0.1650 c3         1 EAX       0.170300
      8 OAD         -0.8700     1.5760     0.2450 oh         1 EAX      -0.691000
      9 CAF         -2.2560    -0.4640     0.2780 c3         1 EAX       0.139600
     10 H1          -4.1970    -0.2680     0.0220 ho         1 EAX       0.473000
     11 H3           0.2930    -0.4890     1.5060 h1         1 EAX       0.044700
     12 H5          -0.8470     0.1370    -1.2610 h1         1 EAX       0.049700
     13 H6           0.0980     1.8110     0.2290 ho         1 EAX       0.487000
     14 H7          -2.3470    -0.3930     1.3710 h1         1 EAX       0.014200
     15 H8          -2.2370    -1.5310     0.0230 h1         1 EAX       0.014200
     16 H4           1.2880    -2.0930    -0.3300 ho         1 EAX       0.526000
@<TRIPOS>BOND
     1     1     9 1   
     2     1    10 1   
     3     2     3 1   
     4     3     4 1   
     5     3     5 1   
     6     5     6 1   
     7     5     7 1   
     8     5    11 1   
     9     6    16 1   
    10     7     8 1   
    11     7     9 1   
    12     7    12 1   
    13     8    13 1   
    14     9    14 1   
    15     9    15 1   
@<TRIPOS>SUBSTRUCTURE
     1 EAX         1 TEMP              0 ****  ****    0 ROOT
