@<TRIPOS>MOLECULE
EAX
   16    15     1     0     0
SMALL
abcg2


@<TRIPOS>ATOM
      1 OAB         -3.2680     0.0700    -0.3830 oh         1 EAX      -0.716000
      2 OAA          1.7600     1.2530     0.7480 o          1 EAX      -0.719500
      3 CAG          1.6250     0.1820     0.1110 c          1 EAX       0.698000
      4 OAC          2.4580    -0.3700    -0.6260 o          1 EAX      -0.719500
      5 CAI          0.3230    -0.5890     0.3780 c3         1 EAX      -0.016700
      6 OAE          0.4200    -1.9220    -0.0570 oh         1 EAX      -0.753000
      7 CAH         -0.8880     0.1120    -0.2780 c3         1 EAX       0.170300
      8 OAD         -0.8110     1.5140    -0.2200 oh         1 EAX      -0.691000
      9 CAF         -2.1670    -0.3830     0.3690 c3         1 EAX       0.139600
     10 H1          -4.0730    -0.2580     0.0260 ho         1 EAX       0.473000
     11 H3           0.1650    -0.5940     1.4660 h1         1 EAX       0.044700
     12 H5          -0.9050    -0.1820    -1.3380 h1         1 EAX       0.049700
     13 H6          -0.0530     1.7520     0.3380 ho         1 EAX       0.487000
     14 H7          -2.2020    -0.0100     1.4030 h1         1 EAX       0.014200
     15 H8          -2.1470    -1.4780     0.4260 h1         1 EAX       0.014200
     16 H4           1.1530    -1.9200    -0.6900 ho         1 EAX       0.526000
@<TRIPOS>BOND
     1     1     9 1   
     2     1    10 1   
     3     2     3 1   
     4     3     4 1   
     5     3     5 1   
     6     5     6 1   
     7     5     7 1   
     8     5    11 1   
     9     6    16 1   
    10     7     8 1   
    11     7     9 1   
    12     7    12 1   
    13     8    13 1   
    14     9    14 1   
    15     9    15 1   
@<TRIPOS>SUBSTRUCTURE
     1 EAX         1 TEMP              0 ****  ****    0 ROOT
