@<TRIPOS>MOLECULE
EAY
   18    18     1     0     0
SMALL
No Charge or Current Charge


@<TRIPOS>ATOM
      1 N01         -8.8450   -24.6850     8.0990 n2         1 EAY      -0.695100
      2 C02         -9.4320   -24.9610     6.9720 ce         1 EAY       0.467600
      3 C03         -8.7360   -25.7980     5.9980 ce         1 EAY      -0.211800
      4 C04         -7.4190   -25.2950     5.4700 c          1 EAY       0.724200
      5 O05         -7.0570   -24.1610     5.7480 o          1 EAY      -0.710500
      6 O06         -6.7790   -26.0150     4.7160 o          1 EAY      -0.710500
      7 C07         -9.2910   -26.9760     5.5610 cf         1 EAY      -0.202000
      8 C08        -10.5600   -27.5900     5.9710 cf         1 EAY      -0.266000
      9 C09        -11.5830   -27.0810     6.7070 c2         1 EAY      -0.038900
     10 O10        -11.7080   -25.8210     7.2380 os         1 EAY      -0.403100
     11 C11        -10.9340   -24.7370     6.7150 c3         1 EAY       0.288000
     12 O12        -11.4240   -23.5360     7.3240 oh         1 EAY      -0.639000
     13 H1          -9.5130   -24.1560     8.6770 hn         1 EAY       0.367400
     14 H4          -8.7200   -27.5610     4.8330 ha         1 EAY       0.197000
     15 H6         -10.6870   -28.6190     5.6260 ha         1 EAY       0.159000
     16 H8         -12.4430   -27.7180     6.9280 h4         1 EAY       0.181000
     17 H10        -11.1130   -24.6570     5.6350 h2         1 EAY       0.045700
     18 H11        -12.4010   -23.5970     7.2690 ho         1 EAY       0.447000
@<TRIPOS>BOND
     1     1     2 2   
     2     1    13 1   
     3     2     3 1   
     4     2    11 1   
     5     3     4 1   
     6     3     7 2   
     7     4     5 1   
     8     4     6 1   
     9     7     8 1   
    10     7    14 1   
    11     8     9 2   
    12     8    15 1   
    13     9    10 1   
    14     9    16 1   
    15    10    11 1   
    16    11    12 1   
    17    11    17 1   
    18    12    18 1   
@<TRIPOS>SUBSTRUCTURE
     1 EAY         1 TEMP              0 ****  ****    0 ROOT
