@<TRIPOS>MOLECULE
EAY
   18    18     1     0     0
SMALL
bcc


@<TRIPOS>ATOM
      1 N01         -8.8910   -24.6180     8.1050 n2         1 EAY      -0.695100
      2 C02         -9.4590   -25.0270     7.0500 ce         1 EAY       0.467600
      3 C03         -8.7510   -25.8120     6.0290 ce         1 EAY      -0.211800
      4 C04         -7.4310   -25.2960     5.4520 c          1 EAY       0.934800
      5 O05         -7.1960   -24.0870     5.6260 o          1 EAY      -0.815800
      6 O06         -6.7330   -26.1190     4.8300 o          1 EAY      -0.815800
      7 C07         -9.3120   -26.9350     5.5450 cf         1 EAY      -0.152000
      8 C08        -10.5710   -27.5540     5.9130 cf         1 EAY      -0.216000
      9 C09        -11.5560   -27.1020     6.7060 c2         1 EAY       0.011100
     10 O10        -11.6920   -25.9010     7.2760 os         1 EAY      -0.379900
     11 C11        -10.9470   -24.8000     6.7630 c3         1 EAY       0.241600
     12 O12        -11.3690   -23.6780     7.4220 oh         1 EAY      -0.576800
     13 H1          -9.5360   -24.0840     8.6850 hn         1 EAY       0.367400
     14 H4          -8.7340   -27.4880     4.8140 ha         1 EAY       0.147000
     15 H6         -10.7310   -28.5570     5.5370 ha         1 EAY       0.109000
     16 H8         -12.3810   -27.7550     6.9660 h4         1 EAY       0.131000
     17 H10        -11.1240   -24.7450     5.6810 h2         1 EAY       0.045700
     18 H11        -12.2320   -23.4060     7.0890 ho         1 EAY       0.408000
@<TRIPOS>BOND
     1     1     2 2   
     2     1    13 1   
     3     2     3 1   
     4     2    11 1   
     5     3     4 1   
     6     3     7 2   
     7     4     5 1   
     8     4     6 1   
     9     7     8 1   
    10     7    14 1   
    11     8     9 2   
    12     8    15 1   
    13     9    10 1   
    14     9    16 1   
    15    10    11 1   
    16    11    12 1   
    17    11    17 1   
    18    12    18 1   
@<TRIPOS>SUBSTRUCTURE
     1 EAY         1 TEMP              0 ****  ****    0 ROOT
