@<TRIPOS>MOLECULE
EAZ
   48    50     1     0     0
SMALL
bcc


@<TRIPOS>ATOM
      1 C1          -1.1730    -0.6840     0.5960 cp         1 EAZ      -0.104300
      2 C2          -1.0760    -2.0310     0.9640 ca         1 EAZ       0.365200
      3 C11         -2.6370     1.3350     0.8770 ca         1 EAZ      -0.104000
      4 C12         -4.9280     1.3240     0.2250 ca         1 EAZ      -0.058000
      5 C13         -4.7860    -0.0270    -0.1950 ca         1 EAZ      -0.152000
      6 C14         -6.0490    -0.3800    -0.6770 cc         1 EAZ      -0.087300
      7 C17         -6.5610    -1.6430    -1.2640 c3         1 EAZ      -0.032900
      8 C18          3.6010    -0.5970     0.3450 c3         1 EAZ       0.148400
      9 C19          4.6890     0.4170     0.0370 c3         1 EAZ       0.159500
     10 C20          6.0210    -0.3270    -0.1200 c3         1 EAZ      -0.115400
     11 C21          7.2360     0.5620    -0.3880 c3         1 EAZ      -0.059700
     12 C22          8.5010    -0.2900    -0.4380 c3         1 EAZ      -0.089600
     13 C23          7.0850     1.3710    -1.6730 c3         1 EAZ      -0.089600
     14 N3           0.0740    -2.6660     1.0870 nb         1 EAZ      -0.641000
     15 C4           1.2090    -2.0130     0.8640 ca         1 EAZ       0.309200
     16 C5           1.2310    -0.6650     0.5060 ca         1 EAZ       0.034800
     17 C6           0.0140    -0.0020     0.3710 ca         1 EAZ      -0.130000
     18 O7           2.3410     0.0490     0.2710 os         1 EAZ      -0.297900
     19 C8          -2.4830    -0.0240     0.4560 cp         1 EAZ      -0.062000
     20 C9          -3.5550    -0.6990    -0.0770 ca         1 EAZ      -0.052000
     21 C10         -3.8190     2.0090     0.7740 ca         1 EAZ      -0.103000
     22 N15         -6.7900     0.7190    -0.5110 na         1 EAZ       0.064800
     23 N16         -6.1690     1.7670     0.0240 nc         1 EAZ      -0.282400
     24 N24          4.6820     1.4580     1.0530 n8         1 EAZ      -0.872800
     25 H1          -1.9730    -2.6010     1.1830 h4         1 EAZ       0.020100
     26 H2          -1.7840     1.8400     1.3140 ha         1 EAZ       0.134000
     27 H3          -6.3460    -2.4870    -0.6080 hc         1 EAZ       0.053700
     28 H4          -7.6380    -1.6040    -1.4190 hc         1 EAZ       0.053700
     29 H5          -6.0900    -1.8470    -2.2260 hc         1 EAZ       0.053700
     30 H6           3.6430    -1.4240    -0.3730 h1         1 EAZ       0.034700
     31 H7           3.7580    -1.0180     1.3460 h1         1 EAZ       0.034700
     32 H8           4.4360     0.8880    -0.9180 h1         1 EAZ       0.074700
     33 H9           6.2060    -0.9100     0.7910 hc         1 EAZ       0.045200
     34 H10          5.9310    -1.0550    -0.9350 hc         1 EAZ       0.045200
     35 H11          7.3420     1.2640     0.4480 hc         1 EAZ       0.039700
     36 H12          9.3920     0.3250    -0.5690 hc         1 EAZ       0.035367
     37 H13          8.6280    -0.8660     0.4820 hc         1 EAZ       0.035367
     38 H14          8.4600    -0.9980    -1.2690 hc         1 EAZ       0.035367
     39 H15          6.2290     2.0470    -1.6420 hc         1 EAZ       0.035367
     40 H16          7.9700     1.9810    -1.8570 hc         1 EAZ       0.035367
     41 H17          6.9520     0.7110    -2.5350 hc         1 EAZ       0.035367
     42 H18          2.1210    -2.5850     0.9820 h4         1 EAZ       0.018100
     43 H19          0.0090     1.0390     0.0700 ha         1 EAZ       0.154000
     44 H20         -3.4520    -1.7200    -0.4240 ha         1 EAZ       0.134000
     45 H21         -3.9090     3.0340     1.1100 ha         1 EAZ       0.146000
     46 H22         -7.7660     0.8070    -0.7570 hn         1 EAZ       0.316700
     47 H23          5.0620     1.0910     1.9190 hn         1 EAZ       0.339800
     48 H24          5.2990     2.2120     0.7800 hn         1 EAZ       0.339800
@<TRIPOS>BOND
     1     1     2 ar  
     2     1    17 ar  
     3     1    19 1   
     4     2    14 ar  
     5     2    25 1   
     6     3    19 ar  
     7     3    21 ar  
     8     3    26 1   
     9     4     5 ar  
    10     4    21 ar  
    11     4    23 2   
    12     5     6 2   
    13     5    20 ar  
    14     6     7 1   
    15     6    22 1   
    16     7    27 1   
    17     7    28 1   
    18     7    29 1   
    19     8     9 1   
    20     8    18 1   
    21     8    30 1   
    22     8    31 1   
    23     9    10 1   
    24     9    24 1   
    25     9    32 1   
    26    10    11 1   
    27    10    33 1   
    28    10    34 1   
    29    11    12 1   
    30    11    13 1   
    31    11    35 1   
    32    12    36 1   
    33    12    37 1   
    34    12    38 1   
    35    13    39 1   
    36    13    40 1   
    37    13    41 1   
    38    14    15 ar  
    39    15    16 ar  
    40    15    42 1   
    41    16    17 ar  
    42    16    18 1   
    43    17    43 1   
    44    19    20 ar  
    45    20    44 1   
    46    21    45 1   
    47    22    23 1   
    48    22    46 1   
    49    24    47 1   
    50    24    48 1   
@<TRIPOS>SUBSTRUCTURE
     1 EAZ         1 TEMP              0 ****  ****    0 ROOT
