@<TRIPOS>MOLECULE
EAZ
   48    50     1     0     0
SMALL
No Charge or Current Charge


@<TRIPOS>ATOM
      1 C1          -1.2480    -0.6970     0.5030 cp         1 EAZ      -0.039000
      2 C2          -1.1750    -2.0930     0.7690 ca         1 EAZ       0.299900
      3 C11         -2.6980     1.3780     0.8050 ca         1 EAZ      -0.086000
      4 C12         -5.0520     1.3660     0.2310 ca         1 EAZ      -0.058000
      5 C13         -4.9280     0.0550    -0.1520 ca         1 EAZ      -0.152000
      6 C14         -6.2170    -0.3430    -0.5930 cc         1 EAZ      -0.087300
      7 C17         -6.6530    -1.6820    -1.1230 c3         1 EAZ      -0.032900
      8 C18          3.6580    -0.6730     0.3340 c3         1 EAZ       0.171600
      9 C19          4.7820     0.3790     0.0860 c3         1 EAZ       0.159500
     10 C20          6.1750    -0.2970    -0.0230 c3         1 EAZ      -0.115400
     11 C21          7.3700     0.6290    -0.3980 c3         1 EAZ      -0.059700
     12 C22          8.7030    -0.1540    -0.3590 c3         1 EAZ      -0.089600
     13 C23          7.1850     1.3220    -1.7690 c3         1 EAZ      -0.089600
     14 N3          -0.0160    -2.7880     0.8690 nb         1 EAZ      -0.641000
     15 C4           1.1430    -2.1070     0.7010 ca         1 EAZ       0.243900
     16 C5           1.1920    -0.7160     0.4300 ca         1 EAZ       0.100100
     17 C6          -0.0180    -0.0110     0.3320 ca         1 EAZ      -0.112000
     18 O7           2.3740    -0.0200     0.2530 os         1 EAZ      -0.321100
     19 C8          -2.5640     0.0130     0.4070 cp         1 EAZ      -0.062000
     20 C9          -3.7210    -0.6530    -0.0830 ca         1 EAZ      -0.034000
     21 C10         -3.9340     2.0550     0.7200 ca         1 EAZ      -0.085000
     22 N15         -7.0400     0.7680    -0.4430 na         1 EAZ       0.014500
     23 N16         -6.3460     1.8720     0.0760 nc         1 EAZ      -0.282400
     24 N24          4.8090     1.4360     1.1310 n8         1 EAZ      -0.983200
     25 H1          -2.0830    -2.6740     0.9220 h4         1 EAZ       0.020100
     26 H2          -1.8390     1.9150     1.2000 ha         1 EAZ       0.116000
     27 H3          -6.4780    -2.4690    -0.3800 hc         1 EAZ       0.053700
     28 H4          -7.7200    -1.6870    -1.3740 hc         1 EAZ       0.053700
     29 H5          -6.0920    -1.9430    -2.0280 hc         1 EAZ       0.053700
     30 H6           3.7280    -1.4590    -0.4290 h1         1 EAZ       0.034700
     31 H7           3.7980    -1.1360     1.3190 h1         1 EAZ       0.034700
     32 H8           4.5570     0.8590    -0.8780 h1         1 EAZ       0.074700
     33 H9           6.3970    -0.7940     0.9310 hc         1 EAZ       0.045200
     34 H10          6.1140    -1.0970    -0.7720 hc         1 EAZ       0.045200
     35 H11          7.4490     1.4180     0.3610 hc         1 EAZ       0.039700
     36 H12          9.5500     0.5100    -0.5710 hc         1 EAZ       0.035367
     37 H13          8.8640    -0.5990     0.6300 hc         1 EAZ       0.035367
     38 H14          8.7050    -0.9600    -1.1030 hc         1 EAZ       0.035367
     39 H15          6.3170     1.9910    -1.7640 hc         1 EAZ       0.035367
     40 H16          8.0650     1.9280    -2.0180 hc         1 EAZ       0.035367
     41 H17          7.0460     0.5810    -2.5660 hc         1 EAZ       0.035367
     42 H18          2.0510    -2.7020     0.7870 h4         1 EAZ       0.018100
     43 H19          0.0010     1.0530     0.1100 ha         1 EAZ       0.136000
     44 H20         -3.6780    -1.6880    -0.4120 ha         1 EAZ       0.116000
     45 H21         -4.0170     3.0940     1.0310 ha         1 EAZ       0.128000
     46 H22         -8.0290     0.8270    -0.6650 hn         1 EAZ       0.367000
     47 H23          5.0630     1.0110     2.0290 hn         1 EAZ       0.395000
     48 H24          5.5910     2.0700     0.9360 hn         1 EAZ       0.395000
@<TRIPOS>BOND
     1     1     2 ar  
     2     1    17 ar  
     3     1    19 1   
     4     2    14 ar  
     5     2    25 1   
     6     3    19 ar  
     7     3    21 ar  
     8     3    26 1   
     9     4     5 ar  
    10     4    21 ar  
    11     4    23 2   
    12     5     6 2   
    13     5    20 ar  
    14     6     7 1   
    15     6    22 1   
    16     7    27 1   
    17     7    28 1   
    18     7    29 1   
    19     8     9 1   
    20     8    18 1   
    21     8    30 1   
    22     8    31 1   
    23     9    10 1   
    24     9    24 1   
    25     9    32 1   
    26    10    11 1   
    27    10    33 1   
    28    10    34 1   
    29    11    12 1   
    30    11    13 1   
    31    11    35 1   
    32    12    36 1   
    33    12    37 1   
    34    12    38 1   
    35    13    39 1   
    36    13    40 1   
    37    13    41 1   
    38    14    15 ar  
    39    15    16 ar  
    40    15    42 1   
    41    16    17 ar  
    42    16    18 1   
    43    17    43 1   
    44    19    20 ar  
    45    20    44 1   
    46    21    45 1   
    47    22    23 1   
    48    22    46 1   
    49    24    47 1   
    50    24    48 1   
@<TRIPOS>SUBSTRUCTURE
     1 EAZ         1 TEMP              0 ****  ****    0 ROOT
