@<TRIPOS>MOLECULE
EB1
   79    81     1     0     0
SMALL
bcc


@<TRIPOS>ATOM
      1 O2          16.7920    18.3600    33.8880 oh         1 EB1      -0.595800
      2 C1          14.3300    18.1830    35.4870 c6         1 EB1       0.187300
      3 C2          14.9290    17.0870    34.6090 c6         1 EB1      -0.064400
      4 C3          15.6660    17.6550    33.4050 c6         1 EB1       0.153100
      5 C4          14.7400    18.5600    32.5890 c6         1 EB1      -0.075200
      6 C5          14.1220    19.6250    33.4520 ce         1 EB1      -0.069200
      7 C6          14.2200    20.9300    33.1500 cf         1 EB1      -0.112000
      8 C7          13.7290    22.0340    33.9530 cf         1 EB1      -0.139000
      9 C8          13.7290    23.3300    33.6070 c2         1 EB1      -0.078400
     10 C9          14.2130    23.8880    32.2940 c6         1 EB1      -0.042200
     11 C10         13.4480    19.0850    34.6510 ce         1 EB1      -0.117200
     12 C11         13.1510    24.7590    31.6070 c6         1 EB1      -0.070400
     13 C12         12.5690    25.8210    32.5410 c6         1 EB1      -0.063400
     14 C13         12.0560    25.2010    33.8370 c5         1 EB1      -0.038000
     15 C14         13.2140    24.4150    34.4970 c5         1 EB1      -0.036500
     16 C15         12.6990    24.1210    35.9020 c5         1 EB1      -0.070400
     17 C16         11.8820    25.3820    36.2650 c5         1 EB1      -0.074400
     18 C17         11.7660    26.2120    34.9630 c5         1 EB1      -0.049700
     19 C18         10.8690    24.2790    33.5490 c3         1 EB1      -0.077100
     20 C19         12.1670    19.3210    34.9290 c2         1 EB1      -0.204000
     21 C20         10.5280    27.1140    34.8540 c3         1 EB1      -0.016500
     22 C21         10.5800    28.1880    35.9510 c3         1 EB1      -0.086100
     23 C22          9.2080    26.4100    34.9350 c2         1 EB1      -0.143200
     24 C23          8.1380    26.7120    34.1940 ce         1 EB1      -0.143000
     25 C24          6.8530    26.0540    34.3510 ce         1 EB1      -0.132000
     26 C25          5.7580    26.3670    33.6540 c2         1 EB1      -0.138200
     27 C27          4.4210    25.6800    33.7280 c3         1 EB1       0.196000
     28 O1          13.6610    17.5660    36.5570 oh         1 EB1      -0.594800
     29 C26          4.1610    24.9810    35.0690 c3         1 EB1      -0.099900
     30 C28          4.3080    24.6770    32.5590 c3         1 EB1      -0.099900
     31 O3           3.4660    26.7150    33.5260 oh         1 EB1      -0.594800
     32 C30          5.2960    23.5200    32.5840 c3         1 EB1      -0.085600
     33 C31          4.0530    25.9170    36.2650 c3         1 EB1      -0.085600
     34 HO2         17.2370    18.7670    33.1380 ho         1 EB1       0.402000
     35 H1          15.1560    18.8060    35.8620 h1         1 EB1       0.055700
     36 H21         15.6070    16.4670    35.2020 hc         1 EB1       0.061700
     37 H22A        14.1270    16.4360    34.2500 hc         1 EB1       0.061700
     38 H3          15.9820    16.8190    32.7660 h1         1 EB1       0.033700
     39 H41         15.2810    19.0030    31.7480 hc         1 EB1       0.051700
     40 H42         13.9540    17.9300    32.1580 hc         1 EB1       0.051700
     41 H6          14.7390    21.1770    32.2290 ha         1 EB1       0.116000
     42 H7          13.3340    21.7700    34.9280 ha         1 EB1       0.127000
     43 H91         15.0910    24.5140    32.4950 hc         1 EB1       0.044700
     44 H92         14.5420    23.1070    31.6090 hc         1 EB1       0.044700
     45 H111        13.5990    25.2420    30.7350 hc         1 EB1       0.040700
     46 H112        12.3520    24.1210    31.2230 hc         1 EB1       0.040700
     47 H121        13.3480    26.5550    32.7800 hc         1 EB1       0.040200
     48 H122        11.7720    26.3690    32.0280 hc         1 EB1       0.040200
     49 H14         14.0360    25.1420    34.6010 hc         1 EB1       0.052700
     50 H151        12.0610    23.2340    35.9120 hc         1 EB1       0.044200
     51 H152        13.5090    23.9340    36.6080 hc         1 EB1       0.044200
     52 H161        10.9050    25.1100    36.6710 hc         1 EB1       0.041700
     53 H162        12.3770    25.9630    37.0440 hc         1 EB1       0.041700
     54 H17         12.6200    26.9020    34.9520 hc         1 EB1       0.042700
     55 H181        10.3850    23.9220    34.4580 hc         1 EB1       0.035700
     56 H182        10.1090    24.7960    32.9620 hc         1 EB1       0.035700
     57 H183        11.1760    23.3960    32.9880 hc         1 EB1       0.035700
     58 H191        11.6690    18.8860    35.7860 ha         1 EB1       0.118500
     59 H192        11.5660    19.9580    34.2930 ha         1 EB1       0.118500
     60 H20         10.5760    27.6340    33.8900 hc         1 EB1       0.050700
     61 H211         9.7610    28.8990    35.8360 hc         1 EB1       0.035033
     62 H212        10.4990    27.7470    36.9460 hc         1 EB1       0.035033
     63 H213        11.5200    28.7430    35.9080 hc         1 EB1       0.035033
     64 H22          9.1030    25.6380    35.6930 ha         1 EB1       0.118000
     65 H23          8.2130    27.4850    33.4330 ha         1 EB1       0.120000
     66 H24          6.8170    25.2620    35.0930 ha         1 EB1       0.118000
     67 H25          5.8240    27.1570    32.9080 ha         1 EB1       0.132000
     68 HO1         13.4230    18.2450    37.1970 ho         1 EB1       0.406000
     69 H261         3.2330    24.4040    34.9780 hc         1 EB1       0.042200
     70 H262         4.9410    24.2380    35.2530 hc         1 EB1       0.042200
     71 H281         3.2860    24.2780    32.5530 hc         1 EB1       0.042200
     72 H282         4.4240    25.2330    31.6240 hc         1 EB1       0.042200
     73 HO3          2.5900    26.3120    33.5070 ho         1 EB1       0.401000
     74 H301         5.1570    22.8850    31.7080 hc         1 EB1       0.036200
     75 H302         6.3260    23.8750    32.5720 hc         1 EB1       0.036200
     76 H303         5.1730    22.8890    33.4640 hc         1 EB1       0.036200
     77 H311         3.9030    25.3470    37.1820 hc         1 EB1       0.036200
     78 H312         4.9550    26.5150    36.3940 hc         1 EB1       0.036200
     79 H313         3.2130    26.6030    36.1630 hc         1 EB1       0.036200
@<TRIPOS>BOND
     1     1     4 1   
     2     1    34 1   
     3     2     3 1   
     4     2    11 1   
     5     2    28 1   
     6     2    35 1   
     7     3     4 1   
     8     3    36 1   
     9     3    37 1   
    10     4     5 1   
    11     4    38 1   
    12     5     6 1   
    13     5    39 1   
    14     5    40 1   
    15     6     7 2   
    16     6    11 1   
    17     7     8 1   
    18     7    41 1   
    19     8     9 2   
    20     8    42 1   
    21     9    10 1   
    22     9    15 1   
    23    10    12 1   
    24    10    43 1   
    25    10    44 1   
    26    11    20 2   
    27    12    13 1   
    28    12    45 1   
    29    12    46 1   
    30    13    14 1   
    31    13    47 1   
    32    13    48 1   
    33    14    15 1   
    34    14    18 1   
    35    14    19 1   
    36    15    16 1   
    37    15    49 1   
    38    16    17 1   
    39    16    50 1   
    40    16    51 1   
    41    17    18 1   
    42    17    52 1   
    43    17    53 1   
    44    18    21 1   
    45    18    54 1   
    46    19    55 1   
    47    19    56 1   
    48    19    57 1   
    49    20    58 1   
    50    20    59 1   
    51    21    22 1   
    52    21    23 1   
    53    21    60 1   
    54    22    61 1   
    55    22    62 1   
    56    22    63 1   
    57    23    24 2   
    58    23    64 1   
    59    24    25 1   
    60    24    65 1   
    61    25    26 2   
    62    25    66 1   
    63    26    27 1   
    64    26    67 1   
    65    27    29 1   
    66    27    30 1   
    67    27    31 1   
    68    28    68 1   
    69    29    33 1   
    70    29    69 1   
    71    29    70 1   
    72    30    32 1   
    73    30    71 1   
    74    30    72 1   
    75    31    73 1   
    76    32    74 1   
    77    32    75 1   
    78    32    76 1   
    79    33    77 1   
    80    33    78 1   
    81    33    79 1   
@<TRIPOS>SUBSTRUCTURE
     1 EB1         1 TEMP              0 ****  ****    0 ROOT
