@<TRIPOS>MOLECULE
EB1
   79    81     1     0     0
SMALL
No Charge or Current Charge


@<TRIPOS>ATOM
      1 O2          16.9900    18.2090    33.4000 oh         1 EB1      -0.658000
      2 C1          14.6570    18.1190    35.3690 c6         1 EB1       0.210500
      3 C2          15.1240    16.9930    34.4150 c6         1 EB1      -0.064400
      4 C3          15.7430    17.5630    33.1140 c6         1 EB1       0.176300
      5 C4          14.7660    18.5520    32.4240 c6         1 EB1      -0.075200
      6 C5          14.2500    19.6270    33.3930 ce         1 EB1      -0.069200
      7 C6          14.2730    20.9510    33.0590 cf         1 EB1      -0.162000
      8 C7          13.8150    22.0500    33.9110 cf         1 EB1      -0.189000
      9 C8          13.6310    23.3530    33.5550 c2         1 EB1      -0.078400
     10 C9          13.8960    23.9050    32.1420 c6         1 EB1      -0.042200
     11 C10         13.6840    19.0660    34.6330 ce         1 EB1      -0.117200
     12 C11         12.7420    24.8000    31.6060 c6         1 EB1      -0.070400
     13 C12         12.2520    25.8390    32.6540 c6         1 EB1      -0.063400
     14 C13         11.9150    25.1570    34.0130 c5         1 EB1      -0.038000
     15 C14         13.1970    24.4440    34.5510 c5         1 EB1      -0.036500
     16 C15         12.7350    23.9870    35.9690 c5         1 EB1      -0.070400
     17 C16         11.8910    25.2120    36.4710 c5         1 EB1      -0.074400
     18 C17         11.7520    26.1560    35.2190 c5         1 EB1      -0.049700
     19 C18         10.6860    24.1990    33.7980 c3         1 EB1      -0.077100
     20 C19         12.4190    19.3370    35.0370 c2         1 EB1      -0.304000
     21 C20         10.5430    27.1500    35.2140 c3         1 EB1      -0.016500
     22 C21         10.6230    28.1700    36.3720 c3         1 EB1      -0.086100
     23 C22          9.1700    26.5020    35.2180 c2         1 EB1      -0.193200
     24 C23          8.1930    26.7250    34.3130 ce         1 EB1      -0.193000
     25 C24          6.8890    26.0600    34.3630 ce         1 EB1      -0.182000
     26 C25          5.9160    26.2640    33.4450 c2         1 EB1      -0.188200
     27 C27          4.5400    25.6140    33.3950 c3         1 EB1       0.219200
     28 O1          14.0600    17.5480    36.5390 oh         1 EB1      -0.657000
     29 C26          3.8730    25.5030    34.8030 c3         1 EB1      -0.099900
     30 C28          4.6040    24.2370    32.6690 c3         1 EB1      -0.099900
     31 O3           3.7080    26.4530    32.5940 oh         1 EB1      -0.657000
     32 C30          5.4890    23.1530    33.3300 c3         1 EB1      -0.085600
     33 C31          3.6930    26.8420    35.5600 c3         1 EB1      -0.085600
     34 HO2         17.3200    18.5720    32.5490 ho         1 EB1       0.441000
     35 H1          15.5410    18.7070    35.6620 h1         1 EB1       0.055700
     36 H21         15.8510    16.3460    34.9230 hc         1 EB1       0.061700
     37 H22A        14.2670    16.3550    34.1580 hc         1 EB1       0.061700
     38 H3          15.9230    16.7240    32.4250 h1         1 EB1       0.033700
     39 H41         15.2480    19.0080    31.5480 hc         1 EB1       0.051700
     40 H42         13.9060    17.9910    32.0330 hc         1 EB1       0.051700
     41 H6          14.6940    21.2050    32.0880 ha         1 EB1       0.166000
     42 H7          13.6260    21.7650    34.9440 ha         1 EB1       0.177000
     43 H91         14.8210    24.4970    32.1700 hc         1 EB1       0.044700
     44 H92         14.0730    23.1100    31.4100 hc         1 EB1       0.044700
     45 H111        13.0750    25.3230    30.6990 hc         1 EB1       0.040700
     46 H112        11.9040    24.1650    31.2890 hc         1 EB1       0.040700
     47 H121        13.0360    26.5950    32.8020 hc         1 EB1       0.040200
     48 H122        11.3770    26.3780    32.2670 hc         1 EB1       0.040200
     49 H14         14.0320    25.1500    34.6520 hc         1 EB1       0.052700
     50 H151        12.1140    23.0850    35.9410 hc         1 EB1       0.044200
     51 H152        13.5840    23.7710    36.6280 hc         1 EB1       0.044200
     52 H161        10.9220    24.8750    36.8540 hc         1 EB1       0.041700
     53 H162        12.3870    25.7300    37.2990 hc         1 EB1       0.041700
     54 H17         12.6200    26.8290    35.2170 hc         1 EB1       0.042700
     55 H181        10.2420    23.8550    34.7380 hc         1 EB1       0.035700
     56 H182         9.8880    24.6970    33.2360 hc         1 EB1       0.035700
     57 H183        10.9550    23.2990    33.2330 hc         1 EB1       0.035700
     58 H191        11.9760    18.9090    35.9350 ha         1 EB1       0.168500
     59 H192        11.7740    19.9980    34.4570 ha         1 EB1       0.168500
     60 H20         10.6290    27.7410    34.2930 hc         1 EB1       0.050700
     61 H211         9.8160    28.9090    36.2890 hc         1 EB1       0.035033
     62 H212        10.5280    27.6700    37.3430 hc         1 EB1       0.035033
     63 H213        11.5780    28.7090    36.3530 hc         1 EB1       0.035033
     64 H22          8.9980    25.8100    36.0430 ha         1 EB1       0.168000
     65 H23          8.3610    27.4210    33.4890 ha         1 EB1       0.170000
     66 H24          6.7300    25.3630    35.1880 ha         1 EB1       0.168000
     67 H25          6.0950    26.9560    32.6220 ha         1 EB1       0.182000
     68 HO1         13.7920    18.3070    37.1010 ho         1 EB1       0.445000
     69 H261         2.8890    25.0300    34.6990 hc         1 EB1       0.042200
     70 H262         4.4620    24.8340    35.4390 hc         1 EB1       0.042200
     71 H281         3.5880    23.8340    32.5710 hc         1 EB1       0.042200
     72 H282         4.9710    24.3940    31.6470 hc         1 EB1       0.042200
     73 HO3          2.8110    26.0610    32.6150 ho         1 EB1       0.440000
     74 H301         5.4560    22.2300    32.7380 hc         1 EB1       0.036200
     75 H302         6.5360    23.4740    33.3850 hc         1 EB1       0.036200
     76 H303         5.1410    22.9120    34.3410 hc         1 EB1       0.036200
     77 H311         3.2280    26.6640    36.5370 hc         1 EB1       0.036200
     78 H312         4.6590    27.3330    35.7310 hc         1 EB1       0.036200
     79 H313         3.0490    27.5310    35.0010 hc         1 EB1       0.036200
@<TRIPOS>BOND
     1     1     4 1   
     2     1    34 1   
     3     2     3 1   
     4     2    11 1   
     5     2    28 1   
     6     2    35 1   
     7     3     4 1   
     8     3    36 1   
     9     3    37 1   
    10     4     5 1   
    11     4    38 1   
    12     5     6 1   
    13     5    39 1   
    14     5    40 1   
    15     6     7 2   
    16     6    11 1   
    17     7     8 1   
    18     7    41 1   
    19     8     9 2   
    20     8    42 1   
    21     9    10 1   
    22     9    15 1   
    23    10    12 1   
    24    10    43 1   
    25    10    44 1   
    26    11    20 2   
    27    12    13 1   
    28    12    45 1   
    29    12    46 1   
    30    13    14 1   
    31    13    47 1   
    32    13    48 1   
    33    14    15 1   
    34    14    18 1   
    35    14    19 1   
    36    15    16 1   
    37    15    49 1   
    38    16    17 1   
    39    16    50 1   
    40    16    51 1   
    41    17    18 1   
    42    17    52 1   
    43    17    53 1   
    44    18    21 1   
    45    18    54 1   
    46    19    55 1   
    47    19    56 1   
    48    19    57 1   
    49    20    58 1   
    50    20    59 1   
    51    21    22 1   
    52    21    23 1   
    53    21    60 1   
    54    22    61 1   
    55    22    62 1   
    56    22    63 1   
    57    23    24 2   
    58    23    64 1   
    59    24    25 1   
    60    24    65 1   
    61    25    26 2   
    62    25    66 1   
    63    26    27 1   
    64    26    67 1   
    65    27    29 1   
    66    27    30 1   
    67    27    31 1   
    68    28    68 1   
    69    29    33 1   
    70    29    69 1   
    71    29    70 1   
    72    30    32 1   
    73    30    71 1   
    74    30    72 1   
    75    31    73 1   
    76    32    74 1   
    77    32    75 1   
    78    32    76 1   
    79    33    77 1   
    80    33    78 1   
    81    33    79 1   
@<TRIPOS>SUBSTRUCTURE
     1 EB1         1 TEMP              0 ****  ****    0 ROOT
