@<TRIPOS>MOLECULE
EB6
   68    71     1     0     0
SMALL
No Charge or Current Charge


@<TRIPOS>ATOM
      1 C4          -2.8440    -2.7270    -1.1580 ca         1 EB6      -0.068500
      2 C2          -4.4020    -2.1820    -2.9490 ca         1 EB6      -0.092000
      3 O4           2.7220     0.6170    -3.0780 o          1 EB6      -0.449000
      4 C23          3.0680     0.6390    -1.9050 c          1 EB6       0.644300
      5 C24          4.4200     0.3360    -1.4790 cg         1 EB6      -0.181200
      6 C25          5.5390     0.0990    -1.0540 ch         1 EB6       0.027000
      7 C26          6.8410    -0.1830    -0.5370 ca         1 EB6      -0.088000
      8 C31          7.9990    -0.0330    -1.3320 ca         1 EB6       0.217100
      9 O6           7.9140     0.3870    -2.6290 oh         1 EB6      -0.511100
     10 C30          9.2620    -0.3180    -0.7940 ca         1 EB6      -0.266000
     11 C29          9.3890    -0.7520     0.5330 ca         1 EB6       0.210100
     12 O5          10.6580    -1.0150     1.0020 os         1 EB6      -0.337100
     13 C32         10.9000    -1.4650     2.3470 c3         1 EB6       0.147900
     14 C28          8.2370    -0.9020     1.3300 ca         1 EB6      -0.247000
     15 C27          6.9680    -0.6180     0.7950 ca         1 EB6       0.004000
     16 C20          0.9100     1.2030    -0.9410 ca         1 EB6       0.106100
     17 C19          0.0630     0.3420    -1.6650 ca         1 EB6      -0.102500
     18 C18         -1.3170     0.6010    -1.7250 ca         1 EB6      -0.092000
     19 C21          0.3680     2.3050    -0.2610 ca         1 EB6      -0.102500
     20 C22         -1.0130     2.5640    -0.3200 ca         1 EB6      -0.092000
     21 C16         -1.8630     1.7120    -1.0530 ca         1 EB6      -0.080300
     22 C15         -3.3660     1.9800    -1.1060 c3         1 EB6      -0.037100
     23 C13         -4.0720     1.8260     0.2640 c3         1 EB6       0.175500
     24 C14         -5.6090     2.0870     0.1090 c          1 EB6       0.554100
     25 O2          -6.4700     1.2140     0.0770 o          1 EB6      -0.477000
     26 O1          -5.8860     3.4320     0.0610 os         1 EB6      -0.442100
     27 C17         -7.2620     3.8380    -0.0610 c3         1 EB6       0.148900
     28 N           -3.7330     0.4990     0.8570 nu         1 EB6      -0.778200
     29 C12         -4.2440    -0.0730     2.0260 ca         1 EB6       0.365000
     30 C11         -4.8450     0.7430     3.0040 ca         1 EB6      -0.199000
     31 C10         -5.3370     0.1900     4.1970 ca         1 EB6      -0.045000
     32 C9          -5.2150    -1.1870     4.4260 ca         1 EB6      -0.170000
     33 C8          -4.6030    -2.0070     3.4670 ca         1 EB6      -0.023000
     34 C7          -4.1250    -1.4600     2.2570 ca         1 EB6      -0.234600
     35 C6          -3.4410    -2.3750     1.2800 c          1 EB6       0.598300
     36 O           -2.6140    -3.1840     1.6840 o          1 EB6      -0.519100
     37 C5          -3.7860    -2.3060    -0.1920 ca         1 EB6      -0.187600
     38 C           -5.0490    -1.8440    -0.6260 ca         1 EB6      -0.068500
     39 C3          -3.1520    -2.6630    -2.5280 ca         1 EB6      -0.125500
     40 C1          -5.3500    -1.7750    -1.9970 ca         1 EB6      -0.125500
     41 H1          -1.8680    -3.0960    -0.8490 ha         1 EB6       0.134000
     42 H2          -4.6370    -2.1290    -4.0100 ha         1 EB6       0.114000
     43 H3           8.8210     0.4230    -2.9980 ho         1 EB6       0.473000
     44 H4          10.1580    -0.2060    -1.3990 ha         1 EB6       0.133000
     45 H5          10.5440    -0.7260     3.0760 h1         1 EB6       0.046367
     46 H6          10.3920    -2.4200     2.5370 h1         1 EB6       0.046367
     47 H7          11.9740    -1.6140     2.5110 h1         1 EB6       0.046367
     48 H8           8.3030    -1.2360     2.3610 ha         1 EB6       0.126000
     49 H9           6.0840    -0.7370     1.4190 ha         1 EB6       0.126000
     50 H10          0.4670    -0.5290    -2.1750 ha         1 EB6       0.129500
     51 H11         -1.9620    -0.0670    -2.2910 ha         1 EB6       0.116000
     52 H12          1.0200     2.9610     0.3110 ha         1 EB6       0.129500
     53 H13         -1.4200     3.4230     0.2070 ha         1 EB6       0.116000
     54 H14         -3.5430     2.9940    -1.4840 hc         1 EB6       0.065200
     55 H15         -3.8460     1.3030    -1.8230 hc         1 EB6       0.065200
     56 H16         -3.6990     2.6180     0.9270 h1         1 EB6       0.092700
     57 H17         -7.7060     3.4430    -0.9840 h1         1 EB6       0.050367
     58 H18         -7.8540     3.4790     0.7910 h1         1 EB6       0.050367
     59 H19         -7.3370     4.9320    -0.0890 h1         1 EB6       0.050367
     60 H20         -3.2820    -0.1540     0.2230 hn         1 EB6       0.331000
     61 H21         -4.9280     1.8140     2.8550 ha         1 EB6       0.112000
     62 H22         -5.8020     0.8290     4.9450 ha         1 EB6       0.110000
     63 H23         -5.5870    -1.6190     5.3530 ha         1 EB6       0.118000
     64 H24         -4.5040    -3.0740     3.6620 ha         1 EB6       0.124000
     65 H25         -5.8020    -1.5330     0.0960 ha         1 EB6       0.134000
     66 H26         -2.4170    -2.9830    -3.2640 ha         1 EB6       0.120000
     67 H27         -6.3220    -1.4090    -2.3200 ha         1 EB6       0.120000
     68 O3           2.2610     0.9640    -0.8450 os         1 EB6      -0.344200
@<TRIPOS>BOND
     1     1    37 ar  
     2     1    39 ar  
     3     1    41 1   
     4     2    39 ar  
     5     2    40 ar  
     6     2    42 1   
     7     3     4 2   
     8     4     5 1   
     9     4    68 1   
    10     5     6 3   
    11     6     7 1   
    12     7     8 ar  
    13     7    15 ar  
    14     8     9 1   
    15     8    10 ar  
    16     9    43 1   
    17    10    11 ar  
    18    10    44 1   
    19    11    12 1   
    20    11    14 ar  
    21    12    13 1   
    22    13    45 1   
    23    13    46 1   
    24    13    47 1   
    25    14    15 ar  
    26    14    48 1   
    27    15    49 1   
    28    16    17 ar  
    29    16    19 ar  
    30    16    68 1   
    31    17    18 ar  
    32    17    50 1   
    33    18    21 ar  
    34    18    51 1   
    35    19    20 ar  
    36    19    52 1   
    37    20    21 ar  
    38    20    53 1   
    39    21    22 1   
    40    22    23 1   
    41    22    54 1   
    42    22    55 1   
    43    23    24 1   
    44    23    28 1   
    45    23    56 1   
    46    24    25 2   
    47    24    26 1   
    48    26    27 1   
    49    27    57 1   
    50    27    58 1   
    51    27    59 1   
    52    28    29 1   
    53    28    60 1   
    54    29    30 ar  
    55    29    34 ar  
    56    30    31 ar  
    57    30    61 1   
    58    31    32 ar  
    59    31    62 1   
    60    32    33 ar  
    61    32    63 1   
    62    33    34 ar  
    63    33    64 1   
    64    34    35 1   
    65    35    36 2   
    66    35    37 1   
    67    37    38 ar  
    68    38    40 ar  
    69    38    65 1   
    70    39    66 1   
    71    40    67 1   
@<TRIPOS>SUBSTRUCTURE
     1 EB6         1 TEMP              0 ****  ****    0 ROOT
