@<TRIPOS>MOLECULE
EB6
   68    71     1     0     0
SMALL
bcc


@<TRIPOS>ATOM
      1 C4          -3.1880    -2.9700    -1.1580 ca         1 EB6      -0.086500
      2 C2          -4.5980    -2.3690    -3.0090 ca         1 EB6      -0.110000
      3 O4           2.8020     1.2340    -2.4500 o          1 EB6      -0.498000
      4 C23          3.1140     0.8330    -1.3610 c          1 EB6       0.693300
      5 C24          4.4430     0.4900    -0.9670 cg         1 EB6      -0.181200
      6 C25          5.5900     0.2380    -0.6830 ch         1 EB6       0.027000
      7 C26          6.9200    -0.0610    -0.3280 ca         1 EB6      -0.088000
      8 C31          7.9520     0.0380    -1.2820 ca         1 EB6       0.217100
      9 O6           7.6070     0.4140    -2.5160 oh         1 EB6      -0.472100
     10 C30          9.2570    -0.2520    -0.9230 ca         1 EB6      -0.284000
     11 C29          9.5590    -0.6440     0.3820 ca         1 EB6       0.210100
     12 O5          10.8450    -0.9020     0.6250 os         1 EB6      -0.313900
     13 C32         11.2310    -1.3200     1.9250 c3         1 EB6       0.124700
     14 C28          8.5440    -0.7470     1.3410 ca         1 EB6      -0.265000
     15 C27          7.2470    -0.4560     0.9730 ca         1 EB6      -0.014000
     16 C20          0.9250     0.9830    -0.5640 ca         1 EB6       0.106100
     17 C19          0.0760     0.0840    -1.1830 ca         1 EB6      -0.120500
     18 C18         -1.2600     0.4200    -1.3390 ca         1 EB6      -0.110000
     19 C21          0.4650     2.2060    -0.1070 ca         1 EB6      -0.120500
     20 C22         -0.8740     2.5260    -0.2690 ca         1 EB6      -0.110000
     21 C16         -1.7540     1.6400    -0.8850 ca         1 EB6      -0.080300
     22 C15         -3.2080     1.9860    -1.0230 c3         1 EB6      -0.037100
     23 C13         -3.9800     1.7680     0.2920 c3         1 EB6       0.175500
     24 C14         -5.4430     2.1310     0.0460 c          1 EB6       0.603100
     25 O2          -6.3010     1.3350    -0.2290 o          1 EB6      -0.526000
     26 O1          -5.6310     3.4360     0.1340 os         1 EB6      -0.418900
     27 C17         -6.9380     3.9380    -0.1570 c3         1 EB6       0.125700
     28 N           -3.8190     0.4080     0.7120 nu         1 EB6      -0.744600
     29 C12         -4.3940    -0.0990     1.8490 ca         1 EB6       0.226600
     30 C11         -4.8960     0.7640     2.8370 ca         1 EB6      -0.217000
     31 C10         -5.4200     0.2740     4.0180 ca         1 EB6      -0.063000
     32 C9          -5.4560    -1.0920     4.2720 ca         1 EB6      -0.188000
     33 C8          -4.9430    -1.9520     3.3210 ca         1 EB6      -0.041000
     34 C7          -4.4300    -1.4900     2.1070 ca         1 EB6      -0.234600
     35 C6          -3.8680    -2.5220     1.1940 c          1 EB6       0.598300
     36 O           -3.2270    -3.4520     1.6450 o          1 EB6      -0.519100
     37 C5          -4.1290    -2.4480    -0.2690 ca         1 EB6      -0.187600
     38 C           -5.3120    -1.8980    -0.7630 ca         1 EB6      -0.086500
     39 C3          -3.4170    -2.9190    -2.5230 ca         1 EB6      -0.143500
     40 C1          -5.5470    -1.8650    -2.1290 ca         1 EB6      -0.143500
     41 H1          -2.2670    -3.3940    -0.7800 ha         1 EB6       0.152000
     42 H2          -4.7770    -2.3310    -4.0760 ha         1 EB6       0.132000
     43 H3           8.3800     0.4490    -3.0930 ho         1 EB6       0.434000
     44 H4          10.0550    -0.1800    -1.6530 ha         1 EB6       0.151000
     45 H5          11.0170    -0.5570     2.6760 h1         1 EB6       0.046367
     46 H6          10.7390    -2.2520     2.2110 h1         1 EB6       0.046367
     47 H7          12.3040    -1.4850     1.8850 h1         1 EB6       0.046367
     48 H8           8.7490    -1.0450     2.3590 ha         1 EB6       0.144000
     49 H9           6.4570    -0.5310     1.7080 ha         1 EB6       0.144000
     50 H10          0.4460    -0.8700    -1.5360 ha         1 EB6       0.147500
     51 H11         -1.9220    -0.2800    -1.8370 ha         1 EB6       0.134000
     52 H12          1.1420     2.9020     0.3720 ha         1 EB6       0.147500
     53 H13         -1.2340     3.4840     0.0860 ha         1 EB6       0.134000
     54 H14         -3.3200     3.0300    -1.3210 hc         1 EB6       0.065200
     55 H15         -3.6660     1.3830    -1.8130 hc         1 EB6       0.065200
     56 H16         -3.5670     2.4460     1.0450 h1         1 EB6       0.092700
     57 H17         -7.2240     3.7210    -1.1850 h1         1 EB6       0.050367
     58 H18         -7.6820     3.5210     0.5210 h1         1 EB6       0.050367
     59 H19         -6.8830     5.0140    -0.0160 h1         1 EB6       0.050367
     60 H20         -3.6870    -0.2430    -0.0430 hn         1 EB6       0.435800
     61 H21         -4.8660     1.8360     2.6950 ha         1 EB6       0.130000
     62 H22         -5.8030     0.9740     4.7510 ha         1 EB6       0.128000
     63 H23         -5.8710    -1.4750     5.1940 ha         1 EB6       0.136000
     64 H24         -4.9570    -3.0180     3.5060 ha         1 EB6       0.142000
     65 H25         -6.0490    -1.4920    -0.0820 ha         1 EB6       0.152000
     66 H26         -2.6760    -3.3080    -3.2080 ha         1 EB6       0.138000
     67 H27         -6.4680    -1.4410    -2.5060 ha         1 EB6       0.138000
     68 O3           2.2530     0.6500    -0.3470 os         1 EB6      -0.344200
@<TRIPOS>BOND
     1     1    37 ar  
     2     1    39 ar  
     3     1    41 1   
     4     2    39 ar  
     5     2    40 ar  
     6     2    42 1   
     7     3     4 2   
     8     4     5 1   
     9     4    68 1   
    10     5     6 3   
    11     6     7 1   
    12     7     8 ar  
    13     7    15 ar  
    14     8     9 1   
    15     8    10 ar  
    16     9    43 1   
    17    10    11 ar  
    18    10    44 1   
    19    11    12 1   
    20    11    14 ar  
    21    12    13 1   
    22    13    45 1   
    23    13    46 1   
    24    13    47 1   
    25    14    15 ar  
    26    14    48 1   
    27    15    49 1   
    28    16    17 ar  
    29    16    19 ar  
    30    16    68 1   
    31    17    18 ar  
    32    17    50 1   
    33    18    21 ar  
    34    18    51 1   
    35    19    20 ar  
    36    19    52 1   
    37    20    21 ar  
    38    20    53 1   
    39    21    22 1   
    40    22    23 1   
    41    22    54 1   
    42    22    55 1   
    43    23    24 1   
    44    23    28 1   
    45    23    56 1   
    46    24    25 2   
    47    24    26 1   
    48    26    27 1   
    49    27    57 1   
    50    27    58 1   
    51    27    59 1   
    52    28    29 1   
    53    28    60 1   
    54    29    30 ar  
    55    29    34 ar  
    56    30    31 ar  
    57    30    61 1   
    58    31    32 ar  
    59    31    62 1   
    60    32    33 ar  
    61    32    63 1   
    62    33    34 ar  
    63    33    64 1   
    64    34    35 1   
    65    35    36 2   
    66    35    37 1   
    67    37    38 ar  
    68    38    40 ar  
    69    38    65 1   
    70    39    66 1   
    71    40    67 1   
@<TRIPOS>SUBSTRUCTURE
     1 EB6         1 TEMP              0 ****  ****    0 ROOT
