@<TRIPOS>MOLECULE
EBB
   35    37     1     0     0
SMALL
bcc


@<TRIPOS>ATOM
      1 C            4.9950     2.7550    -0.0410 c3         1 EBB      -0.052800
      2 C1           4.2510     1.4540    -0.0360 ca         1 EBB      -0.043300
      3 C2           2.8570     1.4410    -0.0140 ca         1 EBB      -0.060300
      4 C3           2.0900     2.7290     0.0120 c3         1 EBB      -0.045800
      5 C4           2.1890     0.2010    -0.0150 ca         1 EBB       0.192400
      6 C5           2.9250    -0.9970    -0.0340 ca         1 EBB      -0.202600
      7 C6           4.3170    -0.9650    -0.0520 ca         1 EBB      -0.061000
      8 C7           4.9650     0.2490    -0.0540 ca         1 EBB      -0.146000
      9 C8           2.2190    -2.2720    -0.0330 c          1 EBB       0.722100
     10 C9           0.2070    -0.9370    -0.0020 cc         1 EBB       0.510900
     11 C10         -1.2870    -1.0020     0.0100 c3         1 EBB      -0.081600
     12 C11         -3.6670     0.3510     0.0150 ca         1 EBB       0.726300
     13 C12         -5.7200     1.2810     0.0170 ca         1 EBB       0.451700
     14 C13         -6.3010     0.0210     0.0190 ca         1 EBB      -0.378600
     15 C14         -5.4290    -1.0520     0.0190 ca         1 EBB       0.451700
     16 O            2.7440    -3.3710    -0.0460 o          1 EBB      -0.611500
     17 N            0.8480    -2.1380    -0.0160 ns         1 EBB      -0.495400
     18 S           -1.9440     0.6830     0.0110 ss         1 EBB      -0.146400
     19 N1           0.8110     0.1900    -0.0000 nd         1 EBB      -0.627100
     20 N3          -4.1090    -0.8950     0.0170 nb         1 EBB      -0.707500
     21 N2          -4.4070     1.4550     0.0150 nb         1 EBB      -0.707500
     22 H1           4.7550     3.3580     0.8370 hc         1 EBB       0.046367
     23 H2           6.0710     2.5950    -0.0500 hc         1 EBB       0.046367
     24 H3           4.7410     3.3580    -0.9150 hc         1 EBB       0.046367
     25 H4           2.3230     3.3460    -0.8580 hc         1 EBB       0.050700
     26 H5           1.0180     2.5570     0.0230 hc         1 EBB       0.050700
     27 H6           2.3450     3.3200     0.8940 hc         1 EBB       0.050700
     28 H7           4.8810    -1.8870    -0.0670 ha         1 EBB       0.154000
     29 H8           6.0480     0.2790    -0.0700 ha         1 EBB       0.136000
     30 H9          -1.6450    -1.5460    -0.8670 h1         1 EBB       0.096200
     31 H10         -1.6330    -1.5440     0.8930 h1         1 EBB       0.096200
     32 H11         -6.3300     2.1770     0.0170 h4         1 EBB       0.026600
     33 H12         -7.3720    -0.1120     0.0210 ha         1 EBB       0.155000
     34 H13         -5.7950    -2.0720     0.0210 h4         1 EBB       0.026600
     35 H14          0.3010    -2.9900    -0.0140 hn         1 EBB       0.332500
@<TRIPOS>BOND
     1     1     2 1   
     2     1    22 1   
     3     1    23 1   
     4     1    24 1   
     5     2     3 ar  
     6     2     8 ar  
     7     3     4 1   
     8     3     5 ar  
     9     4    25 1   
    10     4    26 1   
    11     4    27 1   
    12     5     6 ar  
    13     5    19 1   
    14     6     7 ar  
    15     6     9 1   
    16     7     8 ar  
    17     7    28 1   
    18     8    29 1   
    19     9    16 2   
    20     9    17 1   
    21    10    11 1   
    22    10    17 1   
    23    10    19 2   
    24    11    18 1   
    25    11    30 1   
    26    11    31 1   
    27    12    18 1   
    28    12    20 ar  
    29    12    21 ar  
    30    13    14 ar  
    31    13    21 ar  
    32    13    32 1   
    33    14    15 ar  
    34    14    33 1   
    35    15    20 ar  
    36    15    34 1   
    37    17    35 1   
@<TRIPOS>SUBSTRUCTURE
     1 EBB         1 TEMP              0 ****  ****    0 ROOT
