@<TRIPOS>MOLECULE
EBB
   35    37     1     0     0
SMALL
No Charge or Current Charge


@<TRIPOS>ATOM
      1 C            5.5860     2.4330     0.4560 c3         1 EBB      -0.052800
      2 C1           4.5690     1.3580     0.0790 ca         1 EBB      -0.043300
      3 C2           3.1840     1.4910     0.3720 ca         1 EBB      -0.060300
      4 C3           2.6600     2.7540     1.0780 c3         1 EBB      -0.045800
      5 C4           2.2820     0.4430     0.0300 ca         1 EBB       0.192400
      6 C5           2.7800    -0.7060    -0.6220 ca         1 EBB      -0.202600
      7 C6           4.1480    -0.8210    -0.9250 ca         1 EBB      -0.043000
      8 C7           5.0330     0.2020    -0.5730 ca         1 EBB      -0.128000
      9 C8           1.8390    -1.7950    -0.9820 c          1 EBB       0.579600
     10 C9           0.1330    -0.4240     0.0120 cc         1 EBB       0.510900
     11 C10         -1.3430    -0.4050     0.3040 c3         1 EBB      -0.033700
     12 C11         -4.0650    -0.3800    -0.6510 ca         1 EBB       0.200300
     13 C12         -6.3060    -0.3170    -1.1770 ca         1 EBB       0.123400
     14 C13         -6.6240    -0.3180     0.1910 ca         1 EBB      -0.230000
     15 C14         -5.5580    -0.3530     1.1030 ca         1 EBB       0.123400
     16 O            2.1660    -2.8250    -1.5510 o          1 EBB      -0.536000
     17 N            0.5620    -1.5560    -0.6220 ns         1 EBB      -0.428400
     18 S           -2.3740    -0.4210    -1.2400 ss         1 EBB      -0.194300
     19 N1           0.9170     0.5930     0.3640 nd         1 EBB      -0.627100
     20 N3          -4.2770    -0.3840     0.6850 nb         1 EBB      -0.181500
     21 N2          -5.0270    -0.3480    -1.6000 nb         1 EBB      -0.181500
     22 H1           5.5060     2.7030     1.5150 hc         1 EBB       0.046367
     23 H2           6.6160     2.0980     0.2880 hc         1 EBB       0.046367
     24 H3           5.4380     3.3410    -0.1410 hc         1 EBB       0.046367
     25 H4           3.3030     3.6270     0.9280 hc         1 EBB       0.050700
     26 H5           1.6720     3.0510     0.7060 hc         1 EBB       0.050700
     27 H6           2.5730     2.5860     2.1580 hc         1 EBB       0.050700
     28 H7           4.5310    -1.7080    -1.4280 ha         1 EBB       0.136000
     29 H8           6.0900     0.0920    -0.8070 ha         1 EBB       0.118000
     30 H9          -1.5960    -1.2750     0.9210 h1         1 EBB       0.096200
     31 H10         -1.5810     0.4990     0.8780 h1         1 EBB       0.096200
     32 H11         -7.0810    -0.2920    -1.9420 h4         1 EBB       0.026600
     33 H12         -7.6560    -0.2930     0.5300 ha         1 EBB       0.137000
     34 H13         -5.7280    -0.3560     2.1790 h4         1 EBB       0.026600
     35 H14         -0.1080    -2.2730    -0.8580 hn         1 EBB       0.332500
@<TRIPOS>BOND
     1     1     2 1   
     2     1    22 1   
     3     1    23 1   
     4     1    24 1   
     5     2     3 ar  
     6     2     8 ar  
     7     3     4 1   
     8     3     5 ar  
     9     4    25 1   
    10     4    26 1   
    11     4    27 1   
    12     5     6 ar  
    13     5    19 1   
    14     6     7 ar  
    15     6     9 1   
    16     7     8 ar  
    17     7    28 1   
    18     8    29 1   
    19     9    16 2   
    20     9    17 1   
    21    10    11 1   
    22    10    17 1   
    23    10    19 2   
    24    11    18 1   
    25    11    30 1   
    26    11    31 1   
    27    12    18 1   
    28    12    20 ar  
    29    12    21 ar  
    30    13    14 ar  
    31    13    21 ar  
    32    13    32 1   
    33    14    15 ar  
    34    14    33 1   
    35    15    20 ar  
    36    15    34 1   
    37    17    35 1   
@<TRIPOS>SUBSTRUCTURE
     1 EBB         1 TEMP              0 ****  ****    0 ROOT
