@<TRIPOS>MOLECULE
EBC
   22    21     1     0     0
SMALL
bcc


@<TRIPOS>ATOM
      1 O10          2.6990    -0.4940    -1.7140 o          1 EBC      -0.578100
      2 C2           2.7400     0.2350    -0.7350 c          1 EBC       0.673600
      3 C1           3.9820     1.0170    -0.3740 c3         1 EBC       0.003500
      4 N3           1.7030     0.4220     0.0890 ns         1 EBC      -0.570900
      5 C4           0.4380    -0.2580    -0.0980 c3         1 EBC       0.082500
      6 C5          -0.5650     0.2350     0.9370 c3         1 EBC       0.082500
      7 N6          -1.8410    -0.4230     0.8000 ns         1 EBC      -0.570900
      8 C7          -2.7890     0.0020    -0.0480 c          1 EBC       0.673600
      9 O9          -2.6770     0.9930    -0.7510 o          1 EBC      -0.578100
     10 C8          -4.0390    -0.8470    -0.0670 c3         1 EBC       0.003500
     11 H1           3.8460     1.7260     0.4390 h1         1 EBC       0.089700
     12 I2           5.5330    -0.3580     0.2520 i          1 EBC      -0.230400
     13 H3           4.3710     1.5340    -1.2490 h1         1 EBC       0.089700
     14 H4           1.8230     1.0050     0.9020 hn         1 EBC       0.317500
     15 H5           0.0640    -0.0680    -1.1060 h1         1 EBC       0.061700
     16 H6           0.5720    -1.3390     0.0030 h1         1 EBC       0.061700
     17 H7          -0.1940     0.0290     1.9420 h1         1 EBC       0.061700
     18 H8          -0.7000     1.3150     0.8530 h1         1 EBC       0.061700
     19 H9          -1.9910    -1.2690     1.3240 hn         1 EBC       0.317500
     20 H10         -4.9230    -0.2150    -0.1100 h1         1 EBC       0.089700
     21 I           -4.0570    -2.0280    -1.8840 i          1 EBC      -0.230400
     22 H12         -4.1190    -1.5460     0.7600 h1         1 EBC       0.089700
@<TRIPOS>BOND
     1     1     2 2   
     2     2     3 1   
     3     2     4 1   
     4     3    11 1   
     5     3    12 1   
     6     3    13 1   
     7     4     5 1   
     8     4    14 1   
     9     5     6 1   
    10     5    15 1   
    11     5    16 1   
    12     6     7 1   
    13     6    17 1   
    14     6    18 1   
    15     7     8 1   
    16     7    19 1   
    17     8     9 2   
    18     8    10 1   
    19    10    20 1   
    20    10    21 1   
    21    10    22 1   
@<TRIPOS>SUBSTRUCTURE
     1 EBC         1 TEMP              0 ****  ****    0 ROOT
