@<TRIPOS>MOLECULE
EBC
   22    21     1     0     0
SMALL
No Charge or Current Charge


@<TRIPOS>ATOM
      1 O10          2.6920    -1.1750    -0.6240 o          1 EBC      -0.578100
      2 C2           2.7580     0.0330    -0.4450 c          1 EBC       0.606600
      3 C1           4.0800     0.7630    -0.2000 c3         1 EBC      -0.002400
      4 N3           1.6380     0.8390    -0.4360 ns         1 EBC      -0.503900
      5 C4           0.2600     0.3620    -0.6120 c3         1 EBC       0.082500
      6 C5          -0.2720    -0.3920     0.6270 c3         1 EBC       0.082500
      7 N6          -1.6500    -0.8690     0.4510 ns         1 EBC      -0.503900
      8 C7          -2.7690    -0.0640     0.4600 c          1 EBC       0.606600
      9 O9          -2.7030     1.1450     0.6390 o          1 EBC      -0.578100
     10 C8          -4.0910    -0.7940     0.2150 c3         1 EBC      -0.002400
     11 H1           4.1590     1.6100    -0.8910 h1         1 EBC       0.089700
     12 I2           4.3700     1.6090     1.8640 i          1 EBC      -0.224500
     13 H3           4.9120     0.0700    -0.3670 h1         1 EBC       0.089700
     14 H4           1.7910     1.8280    -0.2680 hn         1 EBC       0.317500
     15 H5          -0.3830     1.2280    -0.8170 h1         1 EBC       0.061700
     16 H6           0.2210    -0.3000    -1.4870 h1         1 EBC       0.061700
     17 H7           0.3710    -1.2580     0.8320 h1         1 EBC       0.061700
     18 H8          -0.2320     0.2700     1.5020 h1         1 EBC       0.061700
     19 H9          -1.8020    -1.8580     0.2830 hn         1 EBC       0.317500
     20 H10         -4.9230    -0.1010     0.3820 h1         1 EBC       0.089700
     21 I           -4.3810    -1.6390    -1.8500 i          1 EBC      -0.224500
     22 H12         -4.1700    -1.6410     0.9060 h1         1 EBC       0.089700
@<TRIPOS>BOND
     1     1     2 2   
     2     2     3 1   
     3     2     4 1   
     4     3    11 1   
     5     3    12 1   
     6     3    13 1   
     7     4     5 1   
     8     4    14 1   
     9     5     6 1   
    10     5    15 1   
    11     5    16 1   
    12     6     7 1   
    13     6    17 1   
    14     6    18 1   
    15     7     8 1   
    16     7    19 1   
    17     8     9 2   
    18     8    10 1   
    19    10    20 1   
    20    10    21 1   
    21    10    22 1   
@<TRIPOS>SUBSTRUCTURE
     1 EBC         1 TEMP              0 ****  ****    0 ROOT
