@<TRIPOS>MOLECULE
EBD
   45    48     1     0     0
SMALL
abcg2


@<TRIPOS>ATOM
      1 N1          -1.0520     2.3980     0.0680 nb         1 EBD      -0.258000
      2 C2          -0.5040     1.2030    -0.0460 ca         1 EBD       0.418900
      3 N3           0.8030     0.9310    -0.0240 nb         1 EBD      -0.313000
      4 C4           1.6370     1.9460     0.1220 ca         1 EBD       0.434900
      5 C5           1.1730     3.2810     0.2480 ca         1 EBD      -0.286300
      6 C6          -0.1910     3.4110     0.2120 ca         1 EBD       0.166900
      7 NAG          2.9680     1.7030     0.1520 nu         1 EBD      -0.886800
      8 CAH          3.6300     0.4860     0.0780 cc         1 EBD       0.504900
      9 NAI         -1.2840     0.0920    -0.2060 nu         1 EBD      -0.930900
     10 CAJ         -2.6580    -0.0700    -0.2810 ca         1 EBD       0.335000
     11 CAK         -3.1220    -1.3750    -0.4990 ca         1 EBD      -0.157500
     12 CAL         -4.4740    -1.6440    -0.5850 ca         1 EBD      -0.064500
     13 CAM         -5.4120    -0.6240    -0.4600 ca         1 EBD      -0.129300
     14 CAN         -4.9530     0.6670    -0.2450 ca         1 EBD      -0.064500
     15 CAO         -3.5990     0.9560    -0.1560 ca         1 EBD      -0.157500
     16 NAP          4.9490     0.5190     0.0990 nd         1 EBD      -0.581800
     17 NAQ          5.3190    -0.7640     0.0310 na         1 EBD      -0.002200
     18 CAR          4.2820    -1.6140    -0.0330 cd         1 EBD      -0.093300
     19 CAS          3.1430    -0.8340    -0.0070 cc         1 EBD      -0.214000
     20 CAT          4.4040    -3.0760    -0.1070 cx         1 EBD      -0.071400
     21 CAU          5.4800    -3.8090     0.6500 cx         1 EBD      -0.123900
     22 CAV         -6.8910    -0.9210    -0.5370 c3         1 EBD       0.041000
     23 CAW          5.5440    -3.7320    -0.8390 cx         1 EBD      -0.123900
     24 CAX          2.0950     4.4470     0.4140 c3         1 EBD      -0.026800
     25 CAY         -7.4200    -1.3240     0.7600 c1         1 EBD       0.300900
     26 NAZ         -7.8220    -1.6360     1.7920 n1         1 EBD      -0.465000
     27 H6          -0.6340     4.3980     0.3070 h4         1 EBD       0.020100
     28 HNAG         3.5800     2.4980     0.2490 hn         1 EBD       0.517000
     29 HNAI        -0.7440    -0.7550    -0.2990 hn         1 EBD       0.508000
     30 HAK         -2.4120    -2.1860    -0.6040 ha         1 EBD       0.133000
     31 HAL         -4.7970    -2.6630    -0.7580 ha         1 EBD       0.114000
     32 HAN         -5.6630     1.4790    -0.1460 ha         1 EBD       0.114000
     33 HAO         -3.2760     1.9710     0.0080 ha         1 EBD       0.133000
     34 HNAQ         6.3010    -0.9850     0.0300 hn         1 EBD       0.372000
     35 HAS          2.1240    -1.1690    -0.0440 ha         1 EBD       0.164000
     36 HAT          3.4450    -3.5750    -0.1750 hc         1 EBD       0.098700
     37 HAU          6.1850    -3.2210     1.2250 hc         1 EBD       0.075950
     38 HAUA         5.2090    -4.7510     1.1080 hc         1 EBD       0.075950
     39 HAV         -7.4530    -0.0480    -0.8720 hc         1 EBD       0.073200
     40 HAVA        -7.0980    -1.7240    -1.2490 hc         1 EBD       0.073200
     41 HAW          5.3180    -4.6200    -1.4130 hc         1 EBD       0.075950
     42 HAWA         6.2950    -3.0930    -1.2880 hc         1 EBD       0.075950
     43 HAX          2.7790     4.5540    -0.4310 hc         1 EBD       0.041367
     44 HAXA         1.5280     5.3740     0.4880 hc         1 EBD       0.041367
     45 HAXB         2.7040     4.3660     1.3180 hc         1 EBD       0.041367
@<TRIPOS>BOND
     1     1     2 ar  
     2     1     6 ar  
     3     2     3 ar  
     4     2     9 1   
     5     3     4 ar  
     6     4     5 ar  
     7     4     7 1   
     8     5     6 ar  
     9     5    24 1   
    10     6    27 1   
    11     7     8 1   
    12     7    28 1   
    13     8    16 2   
    14     8    19 1   
    15     9    10 1   
    16     9    29 1   
    17    10    11 ar  
    18    10    15 ar  
    19    11    12 ar  
    20    11    30 1   
    21    12    13 ar  
    22    12    31 1   
    23    13    14 ar  
    24    13    22 1   
    25    14    15 ar  
    26    14    32 1   
    27    15    33 1   
    28    16    17 1   
    29    17    18 1   
    30    17    34 1   
    31    18    19 2   
    32    18    20 1   
    33    19    35 1   
    34    20    21 1   
    35    20    23 1   
    36    20    36 1   
    37    21    23 1   
    38    21    37 1   
    39    21    38 1   
    40    22    25 1   
    41    22    39 1   
    42    22    40 1   
    43    23    41 1   
    44    23    42 1   
    45    24    43 1   
    46    24    44 1   
    47    24    45 1   
    48    25    26 3   
@<TRIPOS>SUBSTRUCTURE
     1 EBD         1 TEMP              0 ****  ****    0 ROOT
