@<TRIPOS>MOLECULE
EBD
   45    48     1     0     0
SMALL
No Charge or Current Charge


@<TRIPOS>ATOM
      1 N1          -1.0430     2.4100    -0.2330 nb         1 EBD      -0.258000
      2 C2          -0.5180     1.1810    -0.0990 ca         1 EBD       0.418900
      3 N3           0.7760     0.8760     0.0600 nb         1 EBD      -0.313000
      4 C4           1.6370     1.9040     0.1090 ca         1 EBD       0.434900
      5 C5           1.2000     3.2380    -0.0000 ca         1 EBD      -0.286300
      6 C6          -0.1800     3.4390    -0.1780 ca         1 EBD       0.166900
      7 NAG          2.9830     1.6260     0.2950 nu         1 EBD      -0.886800
      8 CAH          3.7610     0.5130     0.2970 cc         1 EBD       0.504900
      9 NAI         -1.3580     0.0810    -0.1770 nu         1 EBD      -0.930900
     10 CAJ         -2.7440    -0.0980    -0.2290 ca         1 EBD       0.335000
     11 CAK         -3.2470    -1.2670    -0.8230 ca         1 EBD      -0.157500
     12 CAL         -4.6320    -1.5000    -0.8880 ca         1 EBD      -0.064500
     13 CAM         -5.5340    -0.5640    -0.3470 ca         1 EBD      -0.129300
     14 CAN         -5.0330     0.6010     0.2640 ca         1 EBD      -0.064500
     15 CAO         -3.6470     0.8290     0.3250 ca         1 EBD      -0.157500
     16 NAP          5.0170     0.6200     0.6260 nd         1 EBD      -0.581800
     17 NAQ          5.4640    -0.7000     0.4910 na         1 EBD      -0.002200
     18 CAR          4.4490    -1.5760     0.0690 cd         1 EBD      -0.093300
     19 CAS          3.3530    -0.7770    -0.0560 cc         1 EBD      -0.214000
     20 CAT          4.5090    -3.0360    -0.2000 cx         1 EBD      -0.071400
     21 CAU          5.3830    -3.9410     0.6380 cx         1 EBD      -0.123900
     22 CAV         -7.0390    -0.8140    -0.4140 c3         1 EBD       0.041000
     23 CAW          5.7480    -3.6620    -0.8010 cx         1 EBD      -0.123900
     24 CAX          2.1520     4.4310     0.0590 c3         1 EBD      -0.026800
     25 CAY         -7.5150    -1.5510     0.7640 c1         1 EBD       0.300900
     26 NAZ         -7.9190    -2.1360     1.6880 n1         1 EBD      -0.465000
     27 H6          -0.6040     4.4370    -0.2780 h4         1 EBD       0.020100
     28 HNAG         3.5470     2.4500     0.4680 hn         1 EBD       0.517000
     29 HNAI        -0.8340    -0.7850    -0.2910 hn         1 EBD       0.508000
     30 HAK         -2.5640    -1.9980    -1.2450 ha         1 EBD       0.133000
     31 HAL         -5.0020    -2.4090    -1.3580 ha         1 EBD       0.114000
     32 HAN         -5.7150     1.3290     0.6980 ha         1 EBD       0.114000
     33 HAO         -3.2850     1.7220     0.8240 ha         1 EBD       0.133000
     34 HNAQ         6.4310    -0.9570     0.6830 hn         1 EBD       0.372000
     35 HAS          2.3640    -1.0750    -0.3760 ha         1 EBD       0.164000
     36 HAT          3.5550    -3.4490    -0.5230 hc         1 EBD       0.098700
     37 HAU          5.9950    -3.4900     1.4150 hc         1 EBD       0.075950
     38 HAUA         4.9990    -4.9300     0.8810 hc         1 EBD       0.075950
     39 HAV         -7.5890     0.1320    -0.4780 hc         1 EBD       0.073200
     40 HAVA        -7.2990    -1.3860    -1.3120 hc         1 EBD       0.073200
     41 HAW          5.6090    -4.4620    -1.5240 hc         1 EBD       0.075950
     42 HAWA         6.6060    -3.0220    -0.9920 hc         1 EBD       0.075950
     43 HAX          2.9160     4.3700    -0.7250 hc         1 EBD       0.041367
     44 HAXA         1.6200     5.3800    -0.0790 hc         1 EBD       0.041367
     45 HAXB         2.6640     4.4830     1.0280 hc         1 EBD       0.041367
@<TRIPOS>BOND
     1     1     2 ar  
     2     1     6 ar  
     3     2     3 ar  
     4     2     9 1   
     5     3     4 ar  
     6     4     5 ar  
     7     4     7 1   
     8     5     6 ar  
     9     5    24 1   
    10     6    27 1   
    11     7     8 1   
    12     7    28 1   
    13     8    16 2   
    14     8    19 1   
    15     9    10 1   
    16     9    29 1   
    17    10    11 ar  
    18    10    15 ar  
    19    11    12 ar  
    20    11    30 1   
    21    12    13 ar  
    22    12    31 1   
    23    13    14 ar  
    24    13    22 1   
    25    14    15 ar  
    26    14    32 1   
    27    15    33 1   
    28    16    17 1   
    29    17    18 1   
    30    17    34 1   
    31    18    19 2   
    32    18    20 1   
    33    19    35 1   
    34    20    21 1   
    35    20    23 1   
    36    20    36 1   
    37    21    23 1   
    38    21    37 1   
    39    21    38 1   
    40    22    25 1   
    41    22    39 1   
    42    22    40 1   
    43    23    41 1   
    44    23    42 1   
    45    24    43 1   
    46    24    44 1   
    47    24    45 1   
    48    25    26 3   
@<TRIPOS>SUBSTRUCTURE
     1 EBD         1 TEMP              0 ****  ****    0 ROOT
