@<TRIPOS>MOLECULE
EBE
   41    43     1     0     0
SMALL
No Charge or Current Charge


@<TRIPOS>ATOM
      1 C4          -0.1140    -0.0790    -0.9320 ca         1 EBE      -0.083000
      2 C5           1.2860     0.0270    -0.9860 ca         1 EBE      -0.099000
      3 C6           2.0810    -0.1310     0.1760 cp         1 EBE      -0.022000
      4 C7           3.5730    -0.0170     0.1180 cp         1 EBE      -0.143000
      5 C8           4.3120    -0.3280    -1.0520 ca         1 EBE       0.120400
      6 C3          -0.7640    -0.3470     0.2880 ca         1 EBE      -0.067300
      7 C2           0.0120    -0.5080     1.4520 ca         1 EBE      -0.083000
      8 C10          6.2800     0.1920     0.0120 ca         1 EBE       0.136300
      9 C1           1.4120    -0.4000     1.3960 ca         1 EBE      -0.099000
     10 C19         -3.5330     0.6960    -1.6060 ca         1 EBE      -0.075000
     11 C12          4.3450     0.4090     1.2300 ca         1 EBE       0.120400
     12 C13         -2.2890    -0.4590     0.3550 c3         1 EBE      -0.042100
     13 C14         -2.9740     0.7570    -0.3070 ca         1 EBE      -0.129300
     14 C18         -4.1400     1.8280    -2.1780 ca         1 EBE      -0.125000
     15 N9           5.6560    -0.2280    -1.1080 nb         1 EBE      -0.179500
     16 C20         -2.7720    -1.8420    -0.1600 c          1 EBE       0.606100
     17 C24          7.7940     0.3000    -0.0450 c3         1 EBE      -0.134400
     18 O21         -2.4650    -2.2950    -1.2580 o          1 EBE      -0.554100
     19 N22         -3.5920    -2.5480     0.7180 ns         1 EBE      -0.385400
     20 O23         -4.3260    -3.7180     0.2790 oh         1 EBE      -0.425100
     21 C17         -4.1970     3.0380    -1.4690 ca         1 EBE      -0.078000
     22 C16         -3.6400     3.1150    -0.1830 ca         1 EBE      -0.151000
     23 C15         -3.0330     1.9870     0.3900 ca         1 EBE       0.177000
     24 F25         -2.5000     2.0980     1.6280 f          1 EBE      -0.178000
     25 N11          5.6890     0.5140     1.1810 nb         1 EBE      -0.179500
     26 H1          -0.6930     0.0490    -1.8430 ha         1 EBE       0.118500
     27 H2           1.7550     0.2470    -1.9420 ha         1 EBE       0.116500
     28 H3           3.8220    -0.6780    -1.9580 h4         1 EBE       0.026600
     29 H4          -0.4680    -0.7170     2.4060 ha         1 EBE       0.118500
     30 H5           1.9810    -0.5420     2.3110 ha         1 EBE       0.116500
     31 H7           3.8790     0.6850     2.1740 h4         1 EBE       0.026600
     32 H8          -2.5910    -0.4280     1.4090 hc         1 EBE       0.073700
     33 H9          -4.5670     1.7670    -3.1770 ha         1 EBE       0.124000
     34 H10          8.2620    -0.6460     0.2510 hc         1 EBE       0.060033
     35 H11          8.1420     0.5430    -1.0560 hc         1 EBE       0.060033
     36 H12          8.1670     1.0820     0.6270 hc         1 EBE       0.060033
     37 H13         -3.9500    -2.0800     1.5510 hn         1 EBE       0.336500
     38 H14         -4.1240    -4.3930     0.9700 ho         1 EBE       0.448000
     39 H15         -4.6670     3.9120    -1.9150 ha         1 EBE       0.121000
     40 H16         -3.6760     4.0490     0.3710 ha         1 EBE       0.135000
     41 H6          -3.5020    -0.2180    -2.1920 ha         1 EBE       0.134000
@<TRIPOS>BOND
     1     1     2 ar  
     2     1     6 ar  
     3     1    26 1   
     4     2     3 ar  
     5     2    27 1   
     6     3     4 1   
     7     3     9 ar  
     8     4     5 ar  
     9     4    11 ar  
    10     5    15 ar  
    11     5    28 1   
    12     6     7 ar  
    13     6    12 1   
    14     7     9 ar  
    15     7    29 1   
    16     8    15 ar  
    17     8    17 1   
    18     8    25 ar  
    19     9    30 1   
    20    10    13 ar  
    21    10    14 ar  
    22    10    41 1   
    23    11    25 ar  
    24    11    31 1   
    25    12    13 1   
    26    12    16 1   
    27    12    32 1   
    28    13    23 ar  
    29    14    21 ar  
    30    14    33 1   
    31    16    18 2   
    32    16    19 1   
    33    17    34 1   
    34    17    35 1   
    35    17    36 1   
    36    19    20 1   
    37    19    37 1   
    38    20    38 1   
    39    21    22 ar  
    40    21    39 1   
    41    22    23 ar  
    42    22    40 1   
    43    23    24 1   
@<TRIPOS>SUBSTRUCTURE
     1 EBE         1 TEMP              0 ****  ****    0 ROOT
