@<TRIPOS>MOLECULE
EBE
   41    43     1     0     0
SMALL
abcg2


@<TRIPOS>ATOM
      1 C4          -0.0970     0.0560    -0.8350 ca         1 EBE      -0.083000
      2 C5           1.2830     0.1520    -0.9060 ca         1 EBE      -0.099000
      3 C6           2.0790    -0.1340     0.2040 cp         1 EBE      -0.022000
      4 C7           3.5420    -0.0200     0.1320 cp         1 EBE      -0.143000
      5 C8           4.2690    -0.3600    -1.0040 ca         1 EBE       0.120400
      6 C3          -0.7220    -0.3220     0.3480 ca         1 EBE      -0.067300
      7 C2           0.0680    -0.6090     1.4550 ca         1 EBE      -0.083000
      8 C10          6.2240     0.2080    -0.0030 ca         1 EBE       0.136300
      9 C1           1.4500    -0.5210     1.3870 ca         1 EBE      -0.099000
     10 C19         -3.5950     0.5580    -1.4880 ca         1 EBE      -0.075000
     11 C12          4.3120     0.4440     1.1940 ca         1 EBE       0.120400
     12 C13         -2.2240    -0.4460     0.4410 c3         1 EBE      -0.042100
     13 C14         -2.9380     0.6850    -0.2680 ca         1 EBE      -0.129300
     14 C18         -4.2160     1.6470    -2.0880 ca         1 EBE      -0.125000
     15 N9           5.5860    -0.2460    -1.0780 nb         1 EBE      -0.179500
     16 C20         -2.6690    -1.8050    -0.0970 c          1 EBE       0.606100
     17 C24          7.7130     0.3110    -0.0700 c3         1 EBE      -0.134400
     18 O21         -2.1320    -2.3620    -1.0340 o          1 EBE      -0.554100
     19 N22         -3.7050    -2.3150     0.5910 ns         1 EBE      -0.385400
     20 O23         -4.3650    -3.4030     0.1080 oh         1 EBE      -0.425100
     21 C17         -4.1870     2.8900    -1.4750 ca         1 EBE      -0.078000
     22 C16         -3.5340     3.0480    -0.2600 ca         1 EBE      -0.151000
     23 C15         -2.9270     1.9480     0.3100 ca         1 EBE       0.177000
     24 F25         -2.2880     2.1050     1.4820 f          1 EBE      -0.178000
     25 N11          5.6290     0.5560     1.1340 nb         1 EBE      -0.179500
     26 H1          -0.6850     0.3030    -1.7100 ha         1 EBE       0.118500
     27 H2           1.7390     0.4790    -1.8320 ha         1 EBE       0.116500
     28 H3           3.7680    -0.7490    -1.8850 h4         1 EBE       0.026600
     29 H4          -0.3980    -0.9110     2.3850 ha         1 EBE       0.118500
     30 H5           2.0380    -0.7680     2.2610 ha         1 EBE       0.116500
     31 H7           3.8410     0.7540     2.1220 h4         1 EBE       0.026600
     32 H8          -2.4970    -0.4000     1.5000 hc         1 EBE       0.073700
     33 H9          -4.7220     1.5180    -3.0350 ha         1 EBE       0.124000
     34 H10          8.1680    -0.6350     0.2350 hc         1 EBE       0.060033
     35 H11          8.0460     0.5220    -1.0840 hc         1 EBE       0.060033
     36 H12          8.0820     1.0840     0.6000 hc         1 EBE       0.060033
     37 H13         -4.2260    -1.7650     1.2600 hn         1 EBE       0.336500
     38 H14         -4.0490    -4.1570     0.6220 ho         1 EBE       0.448000
     39 H15         -4.6700     3.7410    -1.9370 ha         1 EBE       0.121000
     40 H16         -3.4930     4.0080     0.2360 ha         1 EBE       0.135000
     41 H6          -3.6250    -0.3970    -1.9950 ha         1 EBE       0.134000
@<TRIPOS>BOND
     1     1     2 ar  
     2     1     6 ar  
     3     1    26 1   
     4     2     3 ar  
     5     2    27 1   
     6     3     4 1   
     7     3     9 ar  
     8     4     5 ar  
     9     4    11 ar  
    10     5    15 ar  
    11     5    28 1   
    12     6     7 ar  
    13     6    12 1   
    14     7     9 ar  
    15     7    29 1   
    16     8    15 ar  
    17     8    17 1   
    18     8    25 ar  
    19     9    30 1   
    20    10    13 ar  
    21    10    14 ar  
    22    10    41 1   
    23    11    25 ar  
    24    11    31 1   
    25    12    13 1   
    26    12    16 1   
    27    12    32 1   
    28    13    23 ar  
    29    14    21 ar  
    30    14    33 1   
    31    16    18 2   
    32    16    19 1   
    33    17    34 1   
    34    17    35 1   
    35    17    36 1   
    36    19    20 1   
    37    19    37 1   
    38    20    38 1   
    39    21    22 ar  
    40    21    39 1   
    41    22    23 ar  
    42    22    40 1   
    43    23    24 1   
@<TRIPOS>SUBSTRUCTURE
     1 EBE         1 TEMP              0 ****  ****    0 ROOT
