@<TRIPOS>MOLECULE
EBF
   21    22     1     0     0
SMALL
bcc


@<TRIPOS>ATOM
      1 O1          -3.6980     1.3350     0.0060 o          1 EBF      -0.557500
      2 C6          -2.7740     0.5610     0.0000 c          1 EBF       0.748800
      3 C7          -2.8670    -0.8820    -0.0040 cc         1 EBF      -0.285200
      4 C8          -1.7580    -1.6460    -0.0090 cd         1 EBF      -0.004200
      5 C4          -0.4600    -1.0460    -0.0110 ca         1 EBF      -0.202800
      6 C5           0.7390    -1.7600    -0.0150 ca         1 EBF      -0.028000
      7 C            1.9580    -1.1170    -0.0160 ca         1 EBF      -0.246000
      8 O           -1.5210     1.0950    -0.0020 os         1 EBF      -0.339200
      9 C3          -0.3910     0.3510    -0.0070 ca         1 EBF       0.212100
     10 C2           0.8160     1.0220    -0.0080 ca         1 EBF      -0.201000
     11 C1           2.0000     0.2850    -0.0120 ca         1 EBF       0.194100
     12 O2           3.1300     0.9990    -0.0120 os         1 EBF      -0.308900
     13 C9           4.3730     0.3180    -0.0120 c3         1 EBF       0.124700
     14 H1          -3.8590    -1.3120    -0.0030 ha         1 EBF       0.164000
     15 H2          -1.8370    -2.7260    -0.0130 ha         1 EBF       0.140000
     16 H3           0.7070    -2.8420    -0.0180 ha         1 EBF       0.136000
     17 H4           2.8630    -1.7080    -0.0190 ha         1 EBF       0.143000
     18 H5           0.8460     2.1040    -0.0050 ha         1 EBF       0.171000
     19 H6           5.1420     1.0850    -0.0080 h1         1 EBF       0.046367
     20 H7           4.4910    -0.3070     0.8750 h1         1 EBF       0.046367
     21 H8           4.4950    -0.3010    -0.9040 h1         1 EBF       0.046367
@<TRIPOS>BOND
     1     1     2 2   
     2     2     3 1   
     3     2     8 1   
     4     3     4 2   
     5     3    14 1   
     6     4     5 1   
     7     4    15 1   
     8     5     6 ar  
     9     5     9 ar  
    10     6     7 ar  
    11     6    16 1   
    12     7    11 ar  
    13     7    17 1   
    14     8     9 1   
    15     9    10 ar  
    16    10    11 ar  
    17    10    18 1   
    18    11    12 1   
    19    12    13 1   
    20    13    19 1   
    21    13    20 1   
    22    13    21 1   
@<TRIPOS>SUBSTRUCTURE
     1 EBF         1 TEMP              0 ****  ****    0 ROOT
