@<TRIPOS>MOLECULE
EBF
   21    22     1     0     0
SMALL
No Charge or Current Charge


@<TRIPOS>ATOM
      1 O1          -3.8370     1.2840     0.0030 o          1 EBF      -0.482000
      2 C6          -2.8380     0.5800    -0.0010 c          1 EBF       0.673300
      3 C7          -2.9120    -0.8900    -0.0050 cc         1 EBF      -0.335200
      4 C8          -1.7830    -1.6740    -0.0100 cd         1 EBF      -0.054200
      5 C4          -0.4770    -1.0260    -0.0100 ca         1 EBF      -0.202800
      6 C5           0.7130    -1.7740    -0.0140 ca         1 EBF      -0.010000
      7 C            1.9550    -1.1140    -0.0140 ca         1 EBF      -0.228000
      8 O           -1.5770     1.1210    -0.0010 os         1 EBF      -0.339200
      9 C3          -0.4210     0.3780    -0.0060 ca         1 EBF       0.212100
     10 C2           0.8160     1.0350    -0.0050 ca         1 EBF      -0.183000
     11 C1           2.0080     0.2970    -0.0100 ca         1 EBF       0.194100
     12 O2           3.1980     0.9960    -0.0100 os         1 EBF      -0.332100
     13 C9           4.4760     0.3350    -0.0140 c3         1 EBF       0.147900
     14 H1          -3.9120    -1.3090    -0.0050 ha         1 EBF       0.214000
     15 H2          -1.8690    -2.7600    -0.0130 ha         1 EBF       0.190000
     16 H3           0.6790    -2.8620    -0.0180 ha         1 EBF       0.118000
     17 H4           2.8600    -1.7130    -0.0180 ha         1 EBF       0.125000
     18 H5           0.8510     2.1200    -0.0020 ha         1 EBF       0.153000
     19 H6           5.2860     1.0740    -0.0130 h1         1 EBF       0.046367
     20 H7           4.5910    -0.2970     0.8760 h1         1 EBF       0.046367
     21 H8           4.5880    -0.2910    -0.9080 h1         1 EBF       0.046367
@<TRIPOS>BOND
     1     1     2 2   
     2     2     3 1   
     3     2     8 1   
     4     3     4 2   
     5     3    14 1   
     6     4     5 1   
     7     4    15 1   
     8     5     6 ar  
     9     5     9 ar  
    10     6     7 ar  
    11     6    16 1   
    12     7    11 ar  
    13     7    17 1   
    14     8     9 1   
    15     9    10 ar  
    16    10    11 ar  
    17    10    18 1   
    18    11    12 1   
    19    12    13 1   
    20    13    19 1   
    21    13    20 1   
    22    13    21 1   
@<TRIPOS>SUBSTRUCTURE
     1 EBF         1 TEMP              0 ****  ****    0 ROOT
