@<TRIPOS>MOLECULE
EBG
   35    36     1     0     0
SMALL
No Charge or Current Charge


@<TRIPOS>ATOM
      1 C1          -0.7180     1.1940    -0.6820 c6         1 EBG       0.360300
      2 O1          -1.0900     0.3170     0.4000 os         1 EBG      -0.473000
      3 C2          -1.2710     0.6500    -2.0440 c6         1 EBG       0.122300
      4 O2          -2.6960     0.3990    -1.9850 oh         1 EBG      -0.706000
      5 C3          -0.5200    -0.6570    -2.4370 c6         1 EBG       0.136300
      6 O3          -0.9640    -1.1240    -3.7260 oh         1 EBG      -0.672000
      7 C4           1.0180    -0.4240    -2.4390 c6         1 EBG       0.148300
      8 O4           1.6880    -1.6500    -2.7870 oh         1 EBG      -0.717000
      9 C5           1.4530     0.1150    -1.0410 c6         1 EBG       0.168300
     10 O5           0.7200     1.3340    -0.7320 os         1 EBG      -0.465000
     11 C6           2.9840     0.4310    -0.9750 c3         1 EBG       0.170600
     12 O6           3.4020     0.9850     0.2910 oh         1 EBG      -0.710000
     13 C7          -0.7790     0.7770     1.7260 c3         1 EBG       0.163600
     14 C8          -1.2690    -0.2950     2.7130 c3         1 EBG      -0.073400
     15 C9          -1.0130     0.0860     4.1650 cx         1 EBG       0.080300
     16 C10         -1.1100    -0.9500     5.2480 cx         1 EBG       0.078600
     17 O9           0.1720    -0.4610     4.7860 op         1 EBG      -0.436000
     18 H1          -1.1640     2.1840    -0.5030 h2         1 EBG       0.064700
     19 H2          -1.0620     1.4100    -2.8120 h1         1 EBG       0.054700
     20 HO2         -2.8750     0.0670    -1.0720 ho         1 EBG       0.508000
     21 H3          -0.7440    -1.4150    -1.6700 h1         1 EBG       0.072700
     22 HO3         -1.9280    -0.9230    -3.7530 ho         1 EBG       0.464000
     23 H4           1.2490     0.3480    -3.1880 h1         1 EBG       0.047700
     24 HO4          1.1240    -2.0480    -3.4960 ho         1 EBG       0.524000
     25 H5           1.2310    -0.6420    -0.2740 h1         1 EBG       0.075700
     26 H61          3.2220     1.1300    -1.7880 h1         1 EBG       0.034700
     27 H62          3.5350    -0.4980    -1.1740 h1         1 EBG       0.034700
     28 HO6          4.3580     1.2100     0.2040 ho         1 EBG       0.503000
     29 H71          0.3030     0.9190     1.8490 h1         1 EBG       0.042200
     30 H72         -1.2820     1.7310     1.9340 h1         1 EBG       0.042200
     31 H81         -2.3450    -0.4490     2.5640 hc         1 EBG       0.062700
     32 H82         -0.7760    -1.2470     2.4790 hc         1 EBG       0.062700
     33 H9          -1.2510     1.1180     4.4280 h1         1 EBG       0.082700
     34 H101        -1.3930    -0.6400     6.2540 h1         1 EBG       0.075200
     35 H102        -1.3400    -1.9820     4.9800 h1         1 EBG       0.075200
@<TRIPOS>BOND
     1     1     2 1   
     2     1     3 1   
     3     1    10 1   
     4     1    18 1   
     5     2    13 1   
     6     3     4 1   
     7     3     5 1   
     8     3    19 1   
     9     4    20 1   
    10     5     6 1   
    11     5     7 1   
    12     5    21 1   
    13     6    22 1   
    14     7     8 1   
    15     7     9 1   
    16     7    23 1   
    17     8    24 1   
    18     9    10 1   
    19     9    11 1   
    20     9    25 1   
    21    11    12 1   
    22    11    26 1   
    23    11    27 1   
    24    12    28 1   
    25    13    14 1   
    26    13    29 1   
    27    13    30 1   
    28    14    15 1   
    29    14    31 1   
    30    14    32 1   
    31    15    16 1   
    32    15    17 1   
    33    15    33 1   
    34    16    17 1   
    35    16    34 1   
    36    16    35 1   
@<TRIPOS>SUBSTRUCTURE
     1 EBG         1 TEMP              0 ****  ****    0 ROOT
