@<TRIPOS>MOLECULE
EBG
   35    36     1     0     0
SMALL
abcg2


@<TRIPOS>ATOM
      1 C1          -0.7020     1.1140    -0.5800 c6         1 EBG       0.360300
      2 O1          -1.0540     0.2100     0.4130 os         1 EBG      -0.473000
      3 C2          -1.2660     0.6170    -1.9130 c6         1 EBG       0.122300
      4 O2          -2.6400     0.3360    -1.8430 oh         1 EBG      -0.706000
      5 C3          -0.5400    -0.6500    -2.3500 c6         1 EBG       0.136300
      6 O3          -0.9180    -1.0450    -3.6490 oh         1 EBG      -0.672000
      7 C4           0.9640    -0.4030    -2.3740 c6         1 EBG       0.148300
      8 O4           1.6770    -1.5840    -2.6440 oh         1 EBG      -0.717000
      9 C5           1.4230     0.1290    -1.0180 c6         1 EBG       0.168300
     10 O5           0.6830     1.2940    -0.6860 os         1 EBG      -0.465000
     11 C6           2.8870     0.5150    -1.0210 c3         1 EBG       0.170600
     12 O6           3.2490     0.9170     0.2800 oh         1 EBG      -0.710000
     13 C7          -0.6960     0.6020     1.7240 c3         1 EBG       0.163600
     14 C8          -1.3850    -0.3290     2.7040 c3         1 EBG      -0.073400
     15 C9          -1.0660     0.0370     4.1250 cx         1 EBG       0.080300
     16 C10         -0.9110    -0.9740     5.1650 cx         1 EBG       0.078600
     17 O9           0.2210    -0.3220     4.6080 op         1 EBG      -0.436000
     18 H1          -1.0960     2.1140    -0.3460 h2         1 EBG       0.064700
     19 H2          -1.0600     1.4010    -2.6560 h1         1 EBG       0.054700
     20 HO2         -3.1310     1.1590    -1.9210 ho         1 EBG       0.508000
     21 H3          -0.7470    -1.4510    -1.6250 h1         1 EBG       0.072700
     22 HO3         -1.8240    -1.3690    -3.6180 ho         1 EBG       0.464000
     23 H4           1.1710     0.3670    -3.1350 h1         1 EBG       0.047700
     24 HO4          1.3790    -1.9270    -3.4930 ho         1 EBG       0.524000
     25 H5           1.2700    -0.6540    -0.2620 h1         1 EBG       0.075700
     26 H61          3.0460     1.3170    -1.7560 h1         1 EBG       0.034700
     27 H62          3.4710    -0.3480    -1.3560 h1         1 EBG       0.034700
     28 HO6          4.1950     1.0870     0.2830 ho         1 EBG       0.503000
     29 H71          0.3900     0.5550     1.8620 h1         1 EBG       0.042200
     30 H72         -1.0030     1.6410     1.9070 h1         1 EBG       0.042200
     31 H81         -2.4690    -0.2720     2.5690 hc         1 EBG       0.062700
     32 H82         -1.0860    -1.3630     2.5100 hc         1 EBG       0.062700
     33 H9          -1.3950     1.0300     4.4340 h1         1 EBG       0.082700
     34 H101        -1.1420    -0.7260     6.1970 h1         1 EBG       0.075200
     35 H102        -1.0260    -2.0240     4.9100 h1         1 EBG       0.075200
@<TRIPOS>BOND
     1     1     2 1   
     2     1     3 1   
     3     1    10 1   
     4     1    18 1   
     5     2    13 1   
     6     3     4 1   
     7     3     5 1   
     8     3    19 1   
     9     4    20 1   
    10     5     6 1   
    11     5     7 1   
    12     5    21 1   
    13     6    22 1   
    14     7     8 1   
    15     7     9 1   
    16     7    23 1   
    17     8    24 1   
    18     9    10 1   
    19     9    11 1   
    20     9    25 1   
    21    11    12 1   
    22    11    26 1   
    23    11    27 1   
    24    12    28 1   
    25    13    14 1   
    26    13    29 1   
    27    13    30 1   
    28    14    15 1   
    29    14    31 1   
    30    14    32 1   
    31    15    16 1   
    32    15    17 1   
    33    15    33 1   
    34    16    17 1   
    35    16    34 1   
    36    16    35 1   
@<TRIPOS>SUBSTRUCTURE
     1 EBG         1 TEMP              0 ****  ****    0 ROOT
