@<TRIPOS>MOLECULE
EBH
   12    11     1     0     0
SMALL
abcg2


@<TRIPOS>ATOM
      1 C02          2.9270     0.7000     0.0680 c3         1 EBH      -0.133100
      2 C03          1.5870     0.0250     0.3400 c3         1 EBH       0.171300
      3 O04          1.6030    -1.3430     0.0140 oh         1 EBH      -0.638000
      4 C05          0.4970     0.7850    -0.3980 c3         1 EBH       0.046600
      5 BR6         -1.2820     0.0250    -0.0530 br         1 EBH      -0.254000
      6 H1           2.9180     1.7400     0.3960 hc         1 EBH       0.045033
      7 H2           3.7240     0.1860     0.6050 hc         1 EBH       0.045033
      8 H3           3.1690     0.6870    -0.9980 hc         1 EBH       0.045033
      9 H4           1.3840     0.0730     1.4130 h1         1 EBH       0.086700
     10 H5           1.8510    -1.4350    -0.9120 ho         1 EBH       0.440000
     11 H6           0.4600     1.8260    -0.0790 h1         1 EBH       0.072700
     12 H7           0.6440     0.7550    -1.4790 h1         1 EBH       0.072700
@<TRIPOS>BOND
     1     1     2 1   
     2     1     6 1   
     3     1     7 1   
     4     1     8 1   
     5     2     3 1   
     6     2     4 1   
     7     2     9 1   
     8     3    10 1   
     9     4     5 1   
    10     4    11 1   
    11     4    12 1   
@<TRIPOS>SUBSTRUCTURE
     1 EBH         1 TEMP              0 ****  ****    0 ROOT
