@<TRIPOS>MOLECULE
EBH
   12    11     1     0     0
SMALL
No Charge or Current Charge


@<TRIPOS>ATOM
      1 C02          2.9680     0.6800     0.0800 c3         1 EBH      -0.133100
      2 C03          1.5890     0.0520     0.3580 c3         1 EBH       0.171300
      3 O04          1.6310    -1.3330    -0.0150 oh         1 EBH      -0.638000
      4 C05          0.4510     0.7800    -0.3990 c3         1 EBH       0.046600
      5 Br6         -1.3460    -0.0180    -0.0470 br         1 EBH      -0.254000
      6 H1           2.9790     1.7320     0.3870 hc         1 EBH       0.045033
      7 H2           3.7510     0.1560     0.6430 hc         1 EBH       0.045033
      8 H3           3.2170     0.6320    -0.9870 hc         1 EBH       0.045033
      9 H4           1.3870     0.1450     1.4360 h1         1 EBH       0.086700
     10 H5           1.8500    -1.3690    -0.9710 ho         1 EBH       0.440000
     11 H6           0.3940     1.8290    -0.0840 h1         1 EBH       0.072700
     12 H7           0.6120     0.7390    -1.4840 h1         1 EBH       0.072700
@<TRIPOS>BOND
     1     1     2 1   
     2     1     6 1   
     3     1     7 1   
     4     1     8 1   
     5     2     3 1   
     6     2     4 1   
     7     2     9 1   
     8     3    10 1   
     9     4     5 1   
    10     4    11 1   
    11     4    12 1   
@<TRIPOS>SUBSTRUCTURE
     1 EBH         1 TEMP              0 ****  ****    0 ROOT
