@<TRIPOS>MOLECULE
EBI
   58    63     1     0     0
SMALL
No Charge or Current Charge


@<TRIPOS>ATOM
      1 N1           5.1580     1.5660     1.4600 na         1 EBI      -0.045200
      2 C2           4.0000     1.0790     0.8570 cc         1 EBI       0.231000
      3 C3           4.1800    -0.2690     0.8530 cd         1 EBI      -0.224000
      4 C4           5.4300    -0.5240     1.4510 cd         1 EBI       0.300300
      5 N5           6.0570     0.5720     1.8340 nc         1 EBI      -0.509800
      6 N6           2.9620     1.8660     0.4010 nu         1 EBI      -0.914900
      7 C7           6.0210    -1.8770     1.6490 cx         1 EBI      -0.159000
      8 C8           5.1530    -3.0690     1.9960 cx         1 EBI      -0.122400
      9 C9           5.8080    -2.9840     0.6380 cx         1 EBI      -0.122400
     10 C10         -0.9780     3.5490    -1.3830 cc         1 EBI      -0.166100
     11 C11         -0.1610     4.5640    -0.9190 cd         1 EBI      -0.245000
     12 C12          1.0390     4.0090    -0.3840 cd         1 EBI      -0.194000
     13 C13          0.9390     2.6470    -0.5300 cc         1 EBI      -0.294000
     14 N14         -0.2520     2.4000    -1.1210 na         1 EBI       0.316900
     15 C15          1.7680     1.5630    -0.2030 cc         1 EBI       0.474900
     16 N16          1.4310     0.3170    -0.4500 nd         1 EBI      -0.312000
     17 N17         -0.6930     1.1420    -1.4160 nc         1 EBI      -0.371800
     18 C18          0.1820     0.1780    -1.0750 cd         1 EBI       0.385900
     19 C19          0.4970    -2.3110    -0.6900 c5         1 EBI       0.236800
     20 C20         -0.5050    -3.4590    -0.9520 c5         1 EBI      -0.100400
     21 C21         -0.9640    -3.1270    -2.3950 c5         1 EBI      -0.086400
     22 C22         -1.2700    -1.5940    -2.3170 c5         1 EBI       0.183200
     23 N23         -0.2060    -1.1530    -1.3160 nh         1 EBI      -0.803300
     24 C27         -1.1300    -0.9280    -3.7130 c3         1 EBI      -0.092100
     25 C28         -3.7600    -0.5540     0.4610 ca         1 EBI      -0.083000
     26 C29         -5.1280    -0.8340     0.2470 ca         1 EBI      -0.071000
     27 C30         -6.0470    -0.4440     1.2370 ca         1 EBI      -0.173000
     28 C31         -5.5730     0.2000     2.3890 ca         1 EBI       0.541200
     29 N32         -4.2720     0.4730     2.6140 nb         1 EBI      -0.680000
     30 C33         -3.3900     0.0970     1.6590 ca         1 EBI       0.315900
     31 F34         -6.4240     0.5880     3.3620 f          1 EBI      -0.229200
     32 H3           3.4970    -1.0120     0.4660 ha         1 EBI       0.165000
     33 HN6          3.0810     2.8680     0.5280 hn         1 EBI       0.511000
     34 H7           6.9990    -1.8410     2.1220 hc         1 EBI       0.095700
     35 H8           5.5480    -3.7930     2.7040 hc         1 EBI       0.072700
     36 H8A          4.0760    -2.9250     2.0500 hc         1 EBI       0.072700
     37 H9           5.1710    -2.7840    -0.2210 hc         1 EBI       0.072700
     38 H9A          6.6420    -3.6520     0.4350 hc         1 EBI       0.072700
     39 H10         -1.9560     3.5400    -1.8510 h4         1 EBI       0.239000
     40 H11         -0.4020     5.6260    -0.9560 ha         1 EBI       0.210000
     41 H12          1.8640     4.5690     0.0550 ha         1 EBI       0.198000
     42 H19          0.6770    -2.1700     0.3850 h1         1 EBI       0.060200
     43 H19A         1.4630    -2.5000    -1.1800 h1         1 EBI       0.060200
     44 H20         -0.0330    -4.4440    -0.8730 hc         1 EBI       0.059700
     45 H20A        -1.3370    -3.4380    -0.2390 hc         1 EBI       0.059700
     46 H21         -0.1600    -3.3370    -3.1110 hc         1 EBI       0.065200
     47 H21A        -1.8300    -3.7200    -2.7100 hc         1 EBI       0.065200
     48 HN25        -1.7920    -0.7220    -0.1280 hn         1 EBI       0.166000
     49 H27         -1.7470    -1.4470    -4.4560 hc         1 EBI       0.057367
     50 H27A        -1.4500     0.1190    -3.7060 hc         1 EBI       0.057367
     51 H27B        -0.0910    -0.9600    -4.0630 hc         1 EBI       0.057367
     52 H29         -5.4860    -1.3400    -0.6450 ha         1 EBI       0.151000
     53 H30         -7.1090    -0.6360     1.1220 ha         1 EBI       0.143000
     54 H33         -2.3440     0.3280     1.8590 h4         1 EBI       0.023100
     55 HN1          5.3620     2.5470     1.6280 hn         1 EBI       0.369000
     56 C24         -2.7570    -1.4170    -1.7510 c          1 EBI       0.617100
     57 N25         -2.7330    -0.8980    -0.4610 ns         1 EBI      -0.130000
     58 O26         -3.7900    -1.6640    -2.3700 o          1 EBI      -0.577100
@<TRIPOS>BOND
     1     1     2 1   
     2     1     5 1   
     3     1    55 1   
     4     2     3 2   
     5     2     6 1   
     6     3     4 1   
     7     3    32 1   
     8     4     5 2   
     9     4     7 1   
    10     6    15 1   
    11     6    33 1   
    12     7     8 1   
    13     7     9 1   
    14     7    34 1   
    15     8     9 1   
    16     8    35 1   
    17     8    36 1   
    18     9    37 1   
    19     9    38 1   
    20    10    11 2   
    21    10    14 1   
    22    10    39 1   
    23    11    12 1   
    24    11    40 1   
    25    12    13 2   
    26    12    41 1   
    27    13    14 1   
    28    13    15 1   
    29    14    17 1   
    30    15    16 2   
    31    16    18 1   
    32    17    18 2   
    33    18    23 1   
    34    19    20 1   
    35    19    23 1   
    36    19    42 1   
    37    19    43 1   
    38    20    21 1   
    39    20    44 1   
    40    20    45 1   
    41    21    22 1   
    42    21    46 1   
    43    21    47 1   
    44    22    23 1   
    45    22    24 1   
    46    22    56 1   
    47    24    49 1   
    48    24    50 1   
    49    24    51 1   
    50    25    26 ar  
    51    25    30 ar  
    52    25    57 1   
    53    26    27 ar  
    54    26    52 1   
    55    27    28 ar  
    56    27    53 1   
    57    28    29 ar  
    58    28    31 1   
    59    29    30 ar  
    60    30    54 1   
    61    48    57 1   
    62    56    57 1   
    63    56    58 2   
@<TRIPOS>SUBSTRUCTURE
     1 EBI         1 TEMP              0 ****  ****    0 ROOT
