@<TRIPOS>MOLECULE
EBI
   58    63     1     0     0
SMALL
abcg2


@<TRIPOS>ATOM
      1 N1           5.1110     1.4750     1.3010 na         1 EBI      -0.045200
      2 C2           3.9510     1.0420     0.7750 cc         1 EBI       0.231000
      3 C3           4.0210    -0.3350     0.7430 cd         1 EBI      -0.224000
      4 C4           5.2930    -0.6270     1.2820 cd         1 EBI       0.300300
      5 N5           5.9410     0.4720     1.6150 nc         1 EBI      -0.509800
      6 N6           2.9900     1.9560     0.3950 nu         1 EBI      -0.914900
      7 C7           5.9060    -1.9500     1.4860 cx         1 EBI      -0.159000
      8 C8           5.0630    -3.1150     1.9270 cx         1 EBI      -0.122400
      9 C9           5.6040    -3.0770     0.5370 cx         1 EBI      -0.122400
     10 C10         -0.9550     3.4970    -1.4150 cc         1 EBI      -0.166100
     11 C11         -0.2210     4.6010    -1.0040 cd         1 EBI      -0.245000
     12 C12          0.9780     4.1460    -0.4470 cd         1 EBI      -0.194000
     13 C13          0.9500     2.7600    -0.5300 cc         1 EBI      -0.294000
     14 N14         -0.2370     2.3980    -1.1230 na         1 EBI       0.316900
     15 C15          1.7990     1.6770    -0.1790 cc         1 EBI       0.474900
     16 N16          1.4490     0.4400    -0.4070 nd         1 EBI      -0.312000
     17 N17         -0.6250     1.1300    -1.3650 nc         1 EBI      -0.371800
     18 C18          0.2440     0.2280    -0.9940 cd         1 EBI       0.385900
     19 C19          0.7420    -2.1850    -0.7500 c5         1 EBI       0.236800
     20 C20         -0.2180    -3.3600    -0.8280 c5         1 EBI      -0.100400
     21 C21         -1.0510    -3.0350    -2.0600 c5         1 EBI      -0.086400
     22 C22         -1.1640    -1.4860    -2.0920 c5         1 EBI       0.183200
     23 N23         -0.0980    -1.0770    -1.1820 nh         1 EBI      -0.803300
     24 C27         -0.9780    -0.9770    -3.5190 c3         1 EBI      -0.092100
     25 C28         -3.7680    -0.6690     0.5320 ca         1 EBI      -0.083000
     26 C29         -5.0910    -0.8270     0.1100 ca         1 EBI      -0.071000
     27 C30         -6.1160    -0.4540     0.9590 ca         1 EBI      -0.173000
     28 C31         -5.7660     0.0500     2.1970 ca         1 EBI       0.541200
     29 N32         -4.5460     0.2000     2.6230 nb         1 EBI      -0.680000
     30 C33         -3.5610    -0.1480     1.8060 ca         1 EBI       0.315900
     31 F34         -6.7310     0.4200     3.0470 f          1 EBI      -0.229200
     32 H3           3.2730    -1.0170     0.3850 ha         1 EBI       0.165000
     33 HN6          3.2160     2.9300     0.5320 hn         1 EBI       0.511000
     34 H7           6.9140    -1.9090     1.8810 hc         1 EBI       0.095700
     35 H8           5.5010    -3.8120     2.6310 hc         1 EBI       0.072700
     36 H8A          4.0030    -2.9450     2.0710 hc         1 EBI       0.072700
     37 H9           4.9160    -2.8800    -0.2760 hc         1 EBI       0.072700
     38 H9A          6.4130    -3.7480     0.2810 hc         1 EBI       0.072700
     39 H10         -1.9210     3.4220    -1.8870 h4         1 EBI       0.239000
     40 H11         -0.5360     5.6270    -1.1030 ha         1 EBI       0.210000
     41 H12          1.7710     4.7500    -0.0330 ha         1 EBI       0.198000
     42 H19          1.1210    -2.0160     0.2560 h1         1 EBI       0.060200
     43 H19A         1.5990    -2.3250    -1.4170 h1         1 EBI       0.060200
     44 H20          0.3010    -4.3130    -0.9160 hc         1 EBI       0.059700
     45 H20A        -0.8380    -3.4020     0.0700 hc         1 EBI       0.059700
     46 H21         -0.5250    -3.3610    -2.9590 hc         1 EBI       0.065200
     47 H21A        -2.0250    -3.5250    -2.0680 hc         1 EBI       0.065200
     48 HN25        -1.7770    -1.0660     0.2920 hn         1 EBI       0.166000
     49 H27         -1.6650    -1.4830    -4.1940 hc         1 EBI       0.057367
     50 H27A        -1.1380     0.0950    -3.6060 hc         1 EBI       0.057367
     51 H27B         0.0360    -1.2050    -3.8500 hc         1 EBI       0.057367
     52 H29         -5.3300    -1.2370    -0.8580 ha         1 EBI       0.151000
     53 H30         -7.1510    -0.5620     0.6650 ha         1 EBI       0.143000
     54 H33         -2.5510    -0.0110     2.1800 h4         1 EBI       0.023100
     55 HN1          5.3960     2.4290     1.4600 hn         1 EBI       0.369000
     56 C24         -2.5480    -1.0830    -1.5670 c          1 EBI       0.617100
     57 N25         -2.6490    -1.0270    -0.2150 ns         1 EBI      -0.130000
     58 O26         -3.4890    -0.9160    -2.3190 o          1 EBI      -0.577100
@<TRIPOS>BOND
     1     1     2 1   
     2     1     5 1   
     3     1    55 1   
     4     2     3 2   
     5     2     6 1   
     6     3     4 1   
     7     3    32 1   
     8     4     5 2   
     9     4     7 1   
    10     6    15 1   
    11     6    33 1   
    12     7     8 1   
    13     7     9 1   
    14     7    34 1   
    15     8     9 1   
    16     8    35 1   
    17     8    36 1   
    18     9    37 1   
    19     9    38 1   
    20    10    11 2   
    21    10    14 1   
    22    10    39 1   
    23    11    12 1   
    24    11    40 1   
    25    12    13 2   
    26    12    41 1   
    27    13    14 1   
    28    13    15 1   
    29    14    17 1   
    30    15    16 2   
    31    16    18 1   
    32    17    18 2   
    33    18    23 1   
    34    19    20 1   
    35    19    23 1   
    36    19    42 1   
    37    19    43 1   
    38    20    21 1   
    39    20    44 1   
    40    20    45 1   
    41    21    22 1   
    42    21    46 1   
    43    21    47 1   
    44    22    23 1   
    45    22    24 1   
    46    22    56 1   
    47    24    49 1   
    48    24    50 1   
    49    24    51 1   
    50    25    26 ar  
    51    25    30 ar  
    52    25    57 1   
    53    26    27 ar  
    54    26    52 1   
    55    27    28 ar  
    56    27    53 1   
    57    28    29 ar  
    58    28    31 1   
    59    29    30 ar  
    60    30    54 1   
    61    48    57 1   
    62    56    57 1   
    63    56    58 2   
@<TRIPOS>SUBSTRUCTURE
     1 EBI         1 TEMP              0 ****  ****    0 ROOT
