@<TRIPOS>MOLECULE
EBJ
    9     9     1     0     0
SMALL
abcg2


@<TRIPOS>ATOM
      1 S1          -2.0180     0.0150    -0.0520 sh         1 EBJ      -0.117800
      2 C2          -0.2770     0.0730     0.0330 cc         1 EBJ      -0.246000
      3 N3           0.5240    -1.0090     0.0800 na         1 EBJ       0.012800
      4 N4           1.7930    -0.6730     0.0740 nc         1 EBJ      -0.180800
      5 N5           1.8590     0.6160     0.0130 nd         1 EBJ      -0.365000
      6 C6           0.6100     1.1190    -0.0160 cd         1 EBJ       0.252900
      7 H1           0.4040     2.1750    -0.0690 h4         1 EBJ       0.059100
      8 H2          -2.2570    -0.1380     1.2580 hs         1 EBJ       0.199800
      9 H3           0.2550    -1.9820     0.1210 hn         1 EBJ       0.384000
@<TRIPOS>BOND
     1     1     2 1   
     2     1     8 1   
     3     2     3 1   
     4     2     6 2   
     5     3     4 1   
     6     3     9 1   
     7     4     5 2   
     8     5     6 1   
     9     6     7 1   
@<TRIPOS>SUBSTRUCTURE
     1 EBJ         1 TEMP              0 ****  ****    0 ROOT
