@<TRIPOS>MOLECULE
EBJ
    9     9     1     0     0
SMALL
No Charge or Current Charge


@<TRIPOS>ATOM
      1 S1          -2.0240     0.4130     0.3930 sh         1 EBJ      -0.117800
      2 C2          -0.2710     0.2240     0.1750 cc         1 EBJ      -0.246000
      3 N3           0.4620    -0.9370     0.2900 na         1 EBJ       0.012800
      4 N4           1.7860    -0.7110     0.0550 nc         1 EBJ      -0.180800
      5 N5           1.9060     0.5650    -0.2040 nd         1 EBJ      -0.365000
      6 C6           0.6650     1.1700    -0.1390 cd         1 EBJ       0.252900
      7 H1           0.5250     2.2290    -0.3200 h4         1 EBJ       0.059100
      8 H2          -2.2800    -0.8860     0.6760 hs         1 EBJ       0.199800
      9 H3           0.1250    -1.8700     0.5150 hn         1 EBJ       0.384000
@<TRIPOS>BOND
     1     1     2 1   
     2     1     8 1   
     3     2     3 1   
     4     2     6 2   
     5     3     4 1   
     6     3     9 1   
     7     4     5 2   
     8     5     6 1   
     9     6     7 1   
@<TRIPOS>SUBSTRUCTURE
     1 EBJ         1 TEMP              0 ****  ****    0 ROOT
