@<TRIPOS>MOLECULE
EBK
   59    62     1     0     0
SMALL
No Charge or Current Charge


@<TRIPOS>ATOM
      1 N1          -4.9230    -2.3190    -0.6660 nc         1 EBK      -0.523800
      2 N3          -4.3770     1.2050    -1.2290 nu         1 EBK      -0.847100
      3 C4           1.9240    -2.0600     1.2650 ca         1 EBK      -0.214000
      4 C5          -0.5300    -0.2460     1.4690 ca         1 EBK      -0.125500
      5 C6           0.2400     0.7560    -0.5780 ca         1 EBK      -0.125500
      6 C7           3.0310    -0.2010     0.2390 ca         1 EBK      -0.218000
      7 C8           7.9520    -0.6640    -0.6180 c6         1 EBK       0.151300
      8 C10          6.4950    -1.2220    -0.7150 c6         1 EBK       0.217300
      9 C13         -3.6800    -0.9710    -2.1080 cc         1 EBK      -0.136300
     10 C15         -0.9910     1.4100    -0.7330 ca         1 EBK       0.204000
     11 C17          0.5030    -0.0820     0.5240 cp         1 EBK       0.025000
     12 C20         -2.0230     1.2550     0.2300 ca         1 EBK      -0.266500
     13 N            4.3210    -2.1100     0.9560 nb         1 EBK      -0.743000
     14 N5          -4.0120    -2.2670    -1.7050 na         1 EBK       0.144800
     15 C3           3.1760    -2.6790     1.3810 ca         1 EBK       0.390900
     16 C12         -5.1450    -1.0440    -0.4060 cd         1 EBK       0.315300
     17 C14         -1.7700     0.3980     1.3360 ca         1 EBK       0.204000
     18 C16          1.8190    -0.7810     0.6770 cp         1 EBK       0.021000
     19 C18          4.2480    -0.8910     0.3970 ca         1 EBK       0.627900
     20 C19         -4.3860    -0.1790    -1.2500 cd         1 EBK       0.089000
     21 N2           8.0580     0.7640    -1.0440 n3         1 EBK      -0.713600
     22 N4           5.4890    -0.3600    -0.0060 nh         1 EBK      -0.775300
     23 C           -6.1490    -0.6650     0.6500 c3         1 EBK      -0.124400
     24 C1          -2.7350    -0.6200    -3.2310 c3         1 EBK      -0.035800
     25 C2          -3.4970    -3.5180    -2.2840 c3         1 EBK       0.069900
     26 C9           7.1140     1.5960    -0.2400 c6         1 EBK       0.151300
     27 C11          5.6350     1.0970    -0.3270 c6         1 EBK       0.217300
     28 O           -3.4200     3.3940    -0.6510 o          1 EBK      -0.520000
     29 O1          -4.5030     1.9500     1.1400 o          1 EBK      -0.520000
     30 Cl          -2.9300     0.0390     2.6160 cl         1 EBK      -0.150500
     31 S           -3.6140     2.0920    -0.0130 sy         1 EBK       1.157600
     32 H1          -4.0010     1.6320    -2.0660 hn         1 EBK       0.499000
     33 H2           1.0430    -2.5870     1.6170 ha         1 EBK       0.126000
     34 H3          -0.3660    -0.8820     2.3340 ha         1 EBK       0.139500
     35 H4           0.9980     0.8870    -1.3450 ha         1 EBK       0.139500
     36 H5           3.0190     0.7810    -0.2170 ha         1 EBK       0.127000
     37 H6           8.2940    -0.7720     0.4220 h1         1 EBK       0.042450
     38 H7           6.2230    -1.3020    -1.7780 h1         1 EBK       0.055200
     39 H8          10.1010     0.6620    -1.6360 h1         1 EBK       0.033033
     40 H9           9.4920     2.3070    -1.3600 h1         1 EBK       0.033033
     41 H10          9.8410     1.2460     0.0250 h1         1 EBK       0.033033
     42 H11          3.2640    -3.6690     1.8280 h4         1 EBK       0.018100
     43 H12         -5.6750    -0.5920     1.6340 hc         1 EBK       0.058367
     44 H13         -6.6130     0.3000     0.4220 hc         1 EBK       0.058367
     45 H14         -6.9510    -1.4080     0.7190 hc         1 EBK       0.058367
     46 H15         -1.6940    -0.6460    -2.8860 hc         1 EBK       0.054033
     47 H16         -2.8300    -1.3260    -4.0640 hc         1 EBK       0.054033
     48 H17         -2.9390     0.3800    -3.6280 hc         1 EBK       0.054033
     49 H18         -3.8990    -3.6420    -3.2960 h1         1 EBK       0.058367
     50 H19         -2.4030    -3.4760    -2.3290 h1         1 EBK       0.058367
     51 H20         -3.8000    -4.3720    -1.6660 h1         1 EBK       0.058367
     52 H21          7.4180     1.5920     0.8180 h1         1 EBK       0.042450
     53 H22          7.1480     2.6430    -0.5760 h1         1 EBK       0.042450
     54 H23          5.2590     1.2930    -1.3420 h1         1 EBK       0.055200
     55 H24          5.0380     1.7040     0.3680 h1         1 EBK       0.055200
     56 H25          8.6070    -1.2950    -1.2360 h1         1 EBK       0.042450
     57 H26          6.5070    -2.2440    -0.3110 h1         1 EBK       0.055200
     58 Cl1         -1.1560     2.3700    -2.2070 cl         1 EBK      -0.150500
     59 C21          9.4460     1.2710    -0.9990 c3         1 EBK       0.151100
@<TRIPOS>BOND
     1     1    14 1   
     2     1    16 2   
     3     2    20 1   
     4     2    31 1   
     5     2    32 1   
     6     3    15 ar  
     7     3    18 ar  
     8     3    33 1   
     9     4    11 ar  
    10     4    17 ar  
    11     4    34 1   
    12     5    10 ar  
    13     5    11 ar  
    14     5    35 1   
    15     6    18 ar  
    16     6    19 ar  
    17     6    36 1   
    18     7     8 1   
    19     7    21 1   
    20     7    37 1   
    21     7    56 1   
    22     8    22 1   
    23     8    38 1   
    24     8    57 1   
    25     9    14 1   
    26     9    20 2   
    27     9    24 1   
    28    10    12 ar  
    29    10    58 1   
    30    11    18 1   
    31    12    17 ar  
    32    12    31 1   
    33    13    15 ar  
    34    13    19 ar  
    35    14    25 1   
    36    15    42 1   
    37    16    20 1   
    38    16    23 1   
    39    17    30 1   
    40    19    22 1   
    41    21    26 1   
    42    21    59 1   
    43    22    27 1   
    44    23    43 1   
    45    23    44 1   
    46    23    45 1   
    47    24    46 1   
    48    24    47 1   
    49    24    48 1   
    50    25    49 1   
    51    25    50 1   
    52    25    51 1   
    53    26    27 1   
    54    26    52 1   
    55    26    53 1   
    56    27    54 1   
    57    27    55 1   
    58    28    31 2   
    59    29    31 2   
    60    39    59 1   
    61    40    59 1   
    62    41    59 1   
@<TRIPOS>SUBSTRUCTURE
     1 EBK         1 TEMP              0 ****  ****    0 ROOT
