@<TRIPOS>MOLECULE
EBK
   59    62     1     0     0
SMALL
bcc


@<TRIPOS>ATOM
      1 N1          -5.6020    -1.9010    -0.3250 nc         1 EBK      -0.523800
      2 N3          -4.2130     1.3000    -1.1460 nu         1 EBK      -0.653500
      3 C4           2.1390    -2.4090     0.0920 ca         1 EBK      -0.297300
      4 C5          -0.2400    -0.7140     0.8160 ca         1 EBK      -0.143500
      5 C6           0.4700     0.6550    -1.0090 ca         1 EBK      -0.143500
      6 C7           3.2130    -0.2970    -0.2770 ca         1 EBK      -0.301300
      7 C8           8.0840    -0.3560    -0.2540 c6         1 EBK       0.151300
      8 C10          6.8360    -0.9910    -0.8330 c6         1 EBK       0.217300
      9 C13         -3.8580    -1.1560    -1.5070 cc         1 EBK      -0.085600
     10 C15         -0.7530     1.2980    -0.9920 ca         1 EBK       0.112400
     11 C17          0.7470    -0.3440    -0.0850 cp         1 EBK       0.025000
     12 C20         -1.7300     1.0020    -0.0320 ca         1 EBK      -0.266500
     13 N            4.5180    -2.2880    -0.1360 nb         1 EBK      -0.743000
     14 N5          -4.5340    -2.2260    -1.0630 na         1 EBK       0.123400
     15 C3           3.3980    -2.9730     0.0400 ca         1 EBK       0.456200
     16 C12         -5.6270    -0.5850    -0.2750 cd         1 EBK       0.380600
     17 C14         -1.4610    -0.0580     0.8430 ca         1 EBK       0.112400
     18 C16          2.0540    -1.0280    -0.0870 cp         1 EBK       0.021000
     19 C18          4.4570    -0.9620    -0.2730 ca         1 EBK       0.693200
     20 C19         -4.5430    -0.0610    -1.0060 cd         1 EBK      -0.114700
     21 N2           8.1420     1.0540    -0.5780 n3         1 EBK      -0.713600
     22 N4           5.6440    -0.2920    -0.3840 nh         1 EBK      -0.775300
     23 C           -6.6660     0.1610     0.4820 c3         1 EBK      -0.124400
     24 C1          -2.6610    -1.2390    -2.3810 c3         1 EBK      -0.035800
     25 C2          -4.2690    -3.6110    -1.3650 c3         1 EBK       0.040600
     26 C9           6.9740     1.7220    -0.0460 c6         1 EBK       0.151300
     27 C11          5.6930     1.1370    -0.6140 c6         1 EBK       0.217300
     28 O           -2.9570     3.3240    -0.3720 o          1 EBK      -0.590800
     29 O1          -3.8790     1.7320     1.3020 o          1 EBK      -0.590800
     30 CL          -2.6050    -0.6850     1.9670 cl         1 EBK      -0.058900
     31 S           -3.2530     1.9630     0.0210 sy         1 EBK       1.299200
     32 H1          -4.0430     1.6630    -2.0780 hn         1 EBK       0.443800
     33 H2           1.2620    -3.0270     0.2240 ha         1 EBK       0.144000
     34 H3          -0.0600    -1.5120     1.5230 ha         1 EBK       0.157500
     35 H4           1.1940     0.9120    -1.7700 ha         1 EBK       0.157500
     36 H5           3.1430     0.7710    -0.4170 ha         1 EBK       0.145000
     37 H6           8.1100    -0.5250     0.8370 h1         1 EBK       0.042450
     38 H7           6.8920    -0.9640    -1.9300 h1         1 EBK       0.055200
     39 H8          10.2260     1.1700    -0.5640 h1         1 EBK       0.033033
     40 H9           9.3930     2.7150    -0.3890 h1         1 EBK       0.033033
     41 H10          9.4860     1.6050     0.9860 h1         1 EBK       0.033033
     42 H11          3.5120    -4.0480     0.1420 h4         1 EBK       0.018100
     43 H12         -6.3140     0.4220     1.4800 hc         1 EBK       0.058367
     44 H13         -6.9220     1.0910    -0.0230 hc         1 EBK       0.058367
     45 H14         -7.5710    -0.4340     0.5900 hc         1 EBK       0.058367
     46 H15         -1.7970    -1.6440    -1.8510 hc         1 EBK       0.054033
     47 H16         -2.8410    -1.8710    -3.2510 hc         1 EBK       0.054033
     48 H17         -2.3920    -0.2510    -2.7490 hc         1 EBK       0.054033
     49 H18         -4.7970    -3.9290    -2.2640 h1         1 EBK       0.058367
     50 H19         -3.2020    -3.7630    -1.5100 h1         1 EBK       0.058367
     51 H20         -4.5950    -4.2210    -0.5270 h1         1 EBK       0.058367
     52 H21          6.9360     1.6570     1.0560 h1         1 EBK       0.042450
     53 H22          7.0150     2.7830    -0.3020 h1         1 EBK       0.042450
     54 H23          5.6190     1.3640    -1.6860 h1         1 EBK       0.055200
     55 H24          4.8630     1.6330    -0.1140 h1         1 EBK       0.055200
     56 H25          8.9570    -0.8590    -0.6790 h1         1 EBK       0.042450
     57 H26          6.7810    -2.0320    -0.5310 h1         1 EBK       0.055200
     58 CL1         -1.0470     2.3890    -2.2970 cl         1 EBK      -0.058900
     59 C21          9.3650     1.6620    -0.1080 c3         1 EBK       0.151100
@<TRIPOS>BOND
     1     1    14 1   
     2     1    16 2   
     3     2    20 1   
     4     2    31 1   
     5     2    32 1   
     6     3    15 ar  
     7     3    18 ar  
     8     3    33 1   
     9     4    11 ar  
    10     4    17 ar  
    11     4    34 1   
    12     5    10 ar  
    13     5    11 ar  
    14     5    35 1   
    15     6    18 ar  
    16     6    19 ar  
    17     6    36 1   
    18     7     8 1   
    19     7    21 1   
    20     7    37 1   
    21     7    56 1   
    22     8    22 1   
    23     8    38 1   
    24     8    57 1   
    25     9    14 1   
    26     9    20 2   
    27     9    24 1   
    28    10    12 ar  
    29    10    58 1   
    30    11    18 1   
    31    12    17 ar  
    32    12    31 1   
    33    13    15 ar  
    34    13    19 ar  
    35    14    25 1   
    36    15    42 1   
    37    16    20 1   
    38    16    23 1   
    39    17    30 1   
    40    19    22 1   
    41    21    26 1   
    42    21    59 1   
    43    22    27 1   
    44    23    43 1   
    45    23    44 1   
    46    23    45 1   
    47    24    46 1   
    48    24    47 1   
    49    24    48 1   
    50    25    49 1   
    51    25    50 1   
    52    25    51 1   
    53    26    27 1   
    54    26    52 1   
    55    26    53 1   
    56    27    54 1   
    57    27    55 1   
    58    28    31 2   
    59    29    31 2   
    60    39    59 1   
    61    40    59 1   
    62    41    59 1   
@<TRIPOS>SUBSTRUCTURE
     1 EBK         1 TEMP              0 ****  ****    0 ROOT
