@<TRIPOS>MOLECULE
EBL
   67    72     1     0     0
SMALL
abcg2


@<TRIPOS>ATOM
      1 C1         -23.3510    13.1970    21.5490 c3         1 EBL       0.110600
      2 C2         -23.2200    14.2570    19.2500 c3         1 EBL       0.209500
      3 C3         -23.6240    15.4430    18.4180 cx         1 EBL      -0.160700
      4 C4         -22.6470    16.5500    18.1760 cx         1 EBL      -0.117400
      5 C5         -22.9940    15.6090    17.0660 cx         1 EBL      -0.117400
      6 C6         -23.5240    11.8150    19.0260 cc         1 EBL       0.199800
      7 C15        -23.3440     7.3030    12.8180 c6         1 EBL       0.175800
      8 C16        -23.6250     5.8830    13.3150 c6         1 EBL       0.144300
      9 C17        -23.7600     4.9450    12.1250 c6         1 EBL      -0.076400
     10 C18        -24.8040     5.4450    11.1260 c6         1 EBL      -0.091700
     11 C24        -22.7050    11.4910    20.0670 cd         1 EBL      -0.112100
     12 C25        -22.1580    10.1670    20.2710 c          1 EBL       0.583200
     13 O2         -21.4180     9.9080    21.2120 o          1 EBL      -0.528000
     14 O          -22.3240    12.3860    21.0250 os         1 EBL      -0.302100
     15 N          -23.9760    13.0900    18.8260 nu         1 EBL      -0.809200
     16 C          -23.4530    14.4820    20.7410 c3         1 EBL       0.153000
     17 F1         -24.6790    15.0350    20.9650 f          1 EBL      -0.112000
     18 F          -22.5460    15.3970    21.1930 f          1 EBL      -0.112000
     19 N1         -22.5050     9.2130    19.3350 n          1 EBL      -0.283000
     20 C9         -21.9420     7.8800    19.4720 c3         1 EBL       0.072300
     21 C8         -23.4080     9.4620    18.3230 ca         1 EBL       0.100600
     22 C10        -23.8100     8.4360    17.4570 ca         1 EBL      -0.154000
     23 C11        -24.7340     8.6550    16.4610 ca         1 EBL      -0.059000
     24 C12        -25.2810     9.9270    16.2750 ca         1 EBL       0.272000
     25 C23        -24.8740    10.9510    17.1090 ca         1 EBL      -0.104000
     26 C7         -23.9500    10.7460    18.1400 ca         1 EBL      -0.110800
     27 N2         -26.2810    10.1880    15.3270 nu         1 EBL      -0.941900
     28 C13        -26.3540     9.6970    14.0690 ca         1 EBL       0.440900
     29 C22        -27.4690     9.9670    13.2490 ca         1 EBL      -0.129000
     30 CL         -28.7950    10.9300    13.8000 cl         1 EBL      -0.187000
     31 C21        -27.4650     9.4090    11.9930 ca         1 EBL       0.190900
     32 N5         -26.4780     8.6540    11.5350 nb         1 EBL      -0.263000
     33 C14        -25.4490     8.4590    12.3690 ca         1 EBL       0.423900
     34 N3         -25.3650     8.9540    13.6050 nb         1 EBL      -0.324000
     35 N4         -24.3970     7.7300    11.9210 nh         1 EBL      -0.745300
     36 C20        -24.5060     6.8940    10.7390 c6         1 EBL       0.214800
     37 O1         -22.5840     5.4150    14.1410 oh         1 EBL      -0.652000
     38 H1         -23.0980    13.4280    22.5860 h1         1 EBL       0.083200
     39 H2         -24.3130    12.6770    21.5450 h1         1 EBL       0.083200
     40 H3         -22.1460    14.0880    19.1040 h1         1 EBL       0.083700
     41 H4         -24.6680    15.7270    18.4950 hc         1 EBL       0.097700
     42 H5         -21.6630    16.4680    18.6190 hc         1 EBL       0.078950
     43 H6         -23.0340    17.5590    18.1380 hc         1 EBL       0.078950
     44 H7         -23.6200    15.9680    16.2600 hc         1 EBL       0.078950
     45 H8         -22.2480    14.8850    16.7640 hc         1 EBL       0.078950
     46 H9         -22.3980     7.3100    12.2670 h1         1 EBL       0.073200
     47 H10        -23.2550     7.9980    13.6490 h1         1 EBL       0.073200
     48 H11        -24.5810     5.9000    13.8620 h1         1 EBL       0.034700
     49 H12        -24.0210     3.9390    12.4670 hc         1 EBL       0.056200
     50 H13        -22.7890     4.8730    11.6210 hc         1 EBL       0.056200
     51 H14        -25.7860     5.4310    11.6120 hc         1 EBL       0.056700
     52 H16        -21.2230     7.8820    20.2810 h1         1 EBL       0.056033
     53 H17        -22.7180     7.1480    19.6980 h1         1 EBL       0.056033
     54 H18        -21.4340     7.5850    18.5550 h1         1 EBL       0.056033
     55 H19        -23.4200     7.4360    17.5680 ha         1 EBL       0.123000
     56 H20        -25.0400     7.8270    15.8390 ha         1 EBL       0.135000
     57 H21        -25.3150    11.9260    16.9440 ha         1 EBL       0.112000
     58 H22        -26.9710    10.8750    15.5880 hn         1 EBL       0.515000
     59 H23        -28.3040     9.5760    11.3260 h4         1 EBL       0.033100
     60 H24        -23.5540     6.9400    10.1990 h1         1 EBL       0.070700
     61 H25        -25.2750     7.2870    10.0810 h1         1 EBL       0.070700
     62 H29        -22.5610     5.9600    14.9350 ho         1 EBL       0.443000
     63 H15        -24.5040    13.2520    17.9850 hn         1 EBL       0.484000
     64 C19        -24.8610     4.5610     9.8890 c3         1 EBL      -0.084100
     65 H26        -25.0830     3.5270    10.1550 hc         1 EBL       0.038367
     66 H27        -25.6310     4.8990     9.1940 hc         1 EBL       0.038367
     67 H28        -23.9060     4.5690     9.3580 hc         1 EBL       0.038367
@<TRIPOS>BOND
     1     1    14 1   
     2     1    16 1   
     3     1    38 1   
     4     1    39 1   
     5     2     3 1   
     6     2    15 1   
     7     2    16 1   
     8     2    40 1   
     9     3     4 1   
    10     3     5 1   
    11     3    41 1   
    12     4     5 1   
    13     4    42 1   
    14     4    43 1   
    15     5    44 1   
    16     5    45 1   
    17     6    11 2   
    18     6    15 1   
    19     6    26 1   
    20     7     8 1   
    21     7    35 1   
    22     7    46 1   
    23     7    47 1   
    24     8     9 1   
    25     8    37 1   
    26     8    48 1   
    27     9    10 1   
    28     9    49 1   
    29     9    50 1   
    30    10    36 1   
    31    10    51 1   
    32    10    64 1   
    33    11    12 1   
    34    11    14 1   
    35    12    13 2   
    36    12    19 1   
    37    15    63 1   
    38    16    17 1   
    39    16    18 1   
    40    19    20 1   
    41    19    21 1   
    42    20    52 1   
    43    20    53 1   
    44    20    54 1   
    45    21    22 ar  
    46    21    26 ar  
    47    22    23 ar  
    48    22    55 1   
    49    23    24 ar  
    50    23    56 1   
    51    24    25 ar  
    52    24    27 1   
    53    25    26 ar  
    54    25    57 1   
    55    27    28 1   
    56    27    58 1   
    57    28    29 ar  
    58    28    34 ar  
    59    29    30 1   
    60    29    31 ar  
    61    31    32 ar  
    62    31    59 1   
    63    32    33 ar  
    64    33    34 ar  
    65    33    35 1   
    66    35    36 1   
    67    36    60 1   
    68    36    61 1   
    69    37    62 1   
    70    64    65 1   
    71    64    66 1   
    72    64    67 1   
@<TRIPOS>SUBSTRUCTURE
     1 EBL         1 TEMP              0 ****  ****    0 ROOT
