@<TRIPOS>MOLECULE
EBL
   67    72     1     0     0
SMALL
No Charge or Current Charge


@<TRIPOS>ATOM
      1 C1         -23.8200    13.6710    21.7050 c3         1 EBL       0.110600
      2 C2         -23.1420    14.4090    19.3200 c3         1 EBL       0.209500
      3 C3         -23.2710    15.5090    18.2670 cx         1 EBL      -0.160700
      4 C4         -22.1850    16.5460    18.0840 cx         1 EBL      -0.117400
      5 C5         -22.4160    15.4980    17.0190 cx         1 EBL      -0.117400
      6 C6         -23.6830    11.9640    19.3180 cc         1 EBL       0.199800
      7 C15        -23.6660     6.9200    12.7740 c6         1 EBL       0.175800
      8 C16        -23.1940     5.4340    12.7250 c6         1 EBL       0.144300
      9 C17        -23.2480     4.8970    11.2780 c6         1 EBL      -0.076400
     10 C18        -24.6710     5.0730    10.6920 c6         1 EBL      -0.091700
     11 C24        -23.0210    11.6440    20.5050 cd         1 EBL      -0.112100
     12 C25        -22.4720    10.2860    20.7920 c          1 EBL       0.583200
     13 O2         -21.8860    10.0260    21.8400 o          1 EBL      -0.528000
     14 O          -22.8850    12.5800    21.5270 os         1 EBL      -0.302100
     15 N          -23.9580    13.2600    18.9180 nu         1 EBL      -0.809200
     16 C          -23.4860    14.8580    20.7690 c3         1 EBL       0.153000
     17 F1         -24.5470    15.7020    20.7650 f          1 EBL      -0.112000
     18 F          -22.4420    15.5530    21.2830 f          1 EBL      -0.112000
     19 N1         -22.6380     9.3230    19.7770 n          1 EBL      -0.283000
     20 C9         -21.8700     8.0540    19.8790 c3         1 EBL       0.072300
     21 C8         -23.4580     9.5630    18.6240 ca         1 EBL       0.100600
     22 C10        -23.8980     8.4860    17.8200 ca         1 EBL      -0.154000
     23 C11        -24.7890     8.6950    16.7570 ca         1 EBL      -0.059000
     24 C12        -25.2970     9.9790    16.4990 ca         1 EBL       0.272000
     25 C23        -24.9290    11.0330    17.3510 ca         1 EBL      -0.104000
     26 C7         -24.0180    10.8440    18.4230 ca         1 EBL      -0.110800
     27 N2         -26.2090    10.2350    15.4640 nu         1 EBL      -0.941900
     28 C13        -26.4800     9.6440    14.2310 ca         1 EBL       0.440900
     29 C22        -27.5710    10.0760    13.4580 ca         1 EBL      -0.129000
     30 Cl         -28.6700    11.3510    14.0000 cl         1 EBL      -0.187000
     31 C21        -27.7610     9.4480    12.2180 ca         1 EBL       0.190900
     32 N5         -26.9300     8.4830    11.7840 nb         1 EBL      -0.263000
     33 C14        -25.9010     8.1460    12.5900 ca         1 EBL       0.423900
     34 N3         -25.6440     8.6920    13.7950 nb         1 EBL      -0.324000
     35 N4         -25.0180     7.1230    12.1410 nh         1 EBL      -0.745300
     36 C20        -25.1190     6.5600    10.7520 c6         1 EBL       0.214800
     37 O1         -21.8600     5.2940    13.2390 oh         1 EBL      -0.652000
     38 H1         -23.7790    14.0300    22.7410 h1         1 EBL       0.083200
     39 H2         -24.8470    13.3300    21.5220 h1         1 EBL       0.083200
     40 H3         -22.0890    14.0900    19.3330 h1         1 EBL       0.083700
     41 H4         -24.2950    15.8590    18.1500 hc         1 EBL       0.097700
     42 H5         -21.2860    16.4610    18.6900 hc         1 EBL       0.078950
     43 H6         -22.4900    17.5670    17.8670 hc         1 EBL       0.078950
     44 H7         -22.8760    15.8150    16.0860 hc         1 EBL       0.078950
     45 H8         -21.6740    14.7100    16.9140 hc         1 EBL       0.078950
     46 H9         -22.9210     7.5490    12.2630 h1         1 EBL       0.073200
     47 H10        -23.6650     7.2220    13.8310 h1         1 EBL       0.073200
     48 H11        -23.8880     4.8360    13.3340 h1         1 EBL       0.034700
     49 H12        -22.9650     3.8360    11.2660 hc         1 EBL       0.056200
     50 H13        -22.5160     5.4280    10.6540 hc         1 EBL       0.056200
     51 H14        -25.3730     4.4800    11.2960 hc         1 EBL       0.056700
     52 H16        -21.0000     8.1650    20.5380 h1         1 EBL       0.056033
     53 H17        -22.5180     7.2620    20.2740 h1         1 EBL       0.056033
     54 H18        -21.4970     7.7600    18.8900 h1         1 EBL       0.056033
     55 H19        -23.5620     7.4700    18.0060 ha         1 EBL       0.123000
     56 H20        -25.1080     7.8460    16.1620 ha         1 EBL       0.135000
     57 H21        -25.3780    12.0040    17.1730 ha         1 EBL       0.112000
     58 H22        -26.7660    11.0780    15.6030 hn         1 EBL       0.515000
     59 H23        -28.5860     9.7220    11.5620 h4         1 EBL       0.033100
     60 H24        -24.5000     7.1560    10.0640 h1         1 EBL       0.070700
     61 H25        -26.1510     6.6030    10.3740 h1         1 EBL       0.070700
     62 H29        -21.9190     5.3780    14.2170 ho         1 EBL       0.443000
     63 H15        -24.3920    13.3350    18.0000 hn         1 EBL       0.484000
     64 C19        -24.7620     4.5130     9.2470 c3         1 EBL      -0.084100
     65 H26        -24.4880     3.4520     9.2150 hc         1 EBL       0.038367
     66 H27        -25.7810     4.6020     8.8500 hc         1 EBL       0.038367
     67 H28        -24.0910     5.0520     8.5660 hc         1 EBL       0.038367
@<TRIPOS>BOND
     1     1    14 1   
     2     1    16 1   
     3     1    38 1   
     4     1    39 1   
     5     2     3 1   
     6     2    15 1   
     7     2    16 1   
     8     2    40 1   
     9     3     4 1   
    10     3     5 1   
    11     3    41 1   
    12     4     5 1   
    13     4    42 1   
    14     4    43 1   
    15     5    44 1   
    16     5    45 1   
    17     6    11 2   
    18     6    15 1   
    19     6    26 1   
    20     7     8 1   
    21     7    35 1   
    22     7    46 1   
    23     7    47 1   
    24     8     9 1   
    25     8    37 1   
    26     8    48 1   
    27     9    10 1   
    28     9    49 1   
    29     9    50 1   
    30    10    36 1   
    31    10    51 1   
    32    10    64 1   
    33    11    12 1   
    34    11    14 1   
    35    12    13 2   
    36    12    19 1   
    37    15    63 1   
    38    16    17 1   
    39    16    18 1   
    40    19    20 1   
    41    19    21 1   
    42    20    52 1   
    43    20    53 1   
    44    20    54 1   
    45    21    22 ar  
    46    21    26 ar  
    47    22    23 ar  
    48    22    55 1   
    49    23    24 ar  
    50    23    56 1   
    51    24    25 ar  
    52    24    27 1   
    53    25    26 ar  
    54    25    57 1   
    55    27    28 1   
    56    27    58 1   
    57    28    29 ar  
    58    28    34 ar  
    59    29    30 1   
    60    29    31 ar  
    61    31    32 ar  
    62    31    59 1   
    63    32    33 ar  
    64    33    34 ar  
    65    33    35 1   
    66    35    36 1   
    67    36    60 1   
    68    36    61 1   
    69    37    62 1   
    70    64    65 1   
    71    64    66 1   
    72    64    67 1   
@<TRIPOS>SUBSTRUCTURE
     1 EBL         1 TEMP              0 ****  ****    0 ROOT
