@<TRIPOS>MOLECULE
EBM
   25    25     1     0     0
SMALL
bcc


@<TRIPOS>ATOM
      1 I           -1.3990     0.6370     1.6630 i          1 EBM      -0.152900
      2 N            2.5080    -0.1630     0.1340 ns         1 EBM      -0.568900
      3 O            0.8790     1.1370    -0.7560 o          1 EBM      -0.578100
      4 C1          -0.8610    -1.0540     0.5270 ca         1 EBM       0.096900
      5 C2           0.3360    -1.1020    -0.1820 ca         1 EBM      -0.120600
      6 C3           0.6520    -2.2690    -0.8740 ca         1 EBM      -0.114000
      7 C4          -0.2060    -3.3580    -0.8690 ca         1 EBM      -0.119000
      8 C5          -1.3910    -3.2940    -0.1530 ca         1 EBM      -0.117000
      9 C6          -1.7190    -2.1450     0.5530 ca         1 EBM      -0.106000
     10 C7           1.2620     0.0740    -0.2940 c          1 EBM       0.677700
     11 C8           3.5990     0.7960     0.0340 c3         1 EBM       0.111700
     12 C9           4.5150     0.6430     1.2390 c3         1 EBM      -0.108100
     13 C10          4.3540     0.6270    -1.2790 c3         1 EBM      -0.108100
     14 HN           2.7240    -1.0790     0.4960 hn         1 EBM       0.314500
     15 H3           1.5760    -2.3180    -1.4370 ha         1 EBM       0.137000
     16 H4           0.0530    -4.2510    -1.4220 ha         1 EBM       0.138000
     17 H5          -2.0680    -4.1380    -0.1360 ha         1 EBM       0.137000
     18 H6          -2.6400    -2.1100     1.1190 ha         1 EBM       0.148000
     19 H8           3.1510     1.7910     0.0590 h1         1 EBM       0.080700
     20 H9           4.9820    -0.3440     1.2570 hc         1 EBM       0.041700
     21 H9A          5.3120     1.3850     1.2000 hc         1 EBM       0.041700
     22 H9B          3.9700     0.7810     2.1730 hc         1 EBM       0.041700
     23 H10          4.8190    -0.3580    -1.3350 hc         1 EBM       0.041700
     24 H10A         3.6880     0.7400    -2.1350 hc         1 EBM       0.041700
     25 H10B         5.1420     1.3760    -1.3650 hc         1 EBM       0.041700
@<TRIPOS>BOND
     1     1     4 1   
     2     2    10 1   
     3     2    11 1   
     4     2    14 1   
     5     3    10 2   
     6     4     5 ar  
     7     4     9 ar  
     8     5     6 ar  
     9     5    10 1   
    10     6     7 ar  
    11     6    15 1   
    12     7     8 ar  
    13     7    16 1   
    14     8     9 ar  
    15     8    17 1   
    16     9    18 1   
    17    11    12 1   
    18    11    13 1   
    19    11    19 1   
    20    12    20 1   
    21    12    21 1   
    22    12    22 1   
    23    13    23 1   
    24    13    24 1   
    25    13    25 1   
@<TRIPOS>SUBSTRUCTURE
     1 EBM         1 TEMP              0 ****  ****    0 ROOT
