@<TRIPOS>MOLECULE
EBM
   25    25     1     0     0
SMALL
No Charge or Current Charge


@<TRIPOS>ATOM
      1 I           -1.9920     0.9080     0.9170 i          1 EBM      -0.290000
      2 N            2.5680    -0.1940     0.1290 ns         1 EBM      -0.501900
      3 O            0.8880     1.2350    -0.3960 o          1 EBM      -0.578100
      4 C1          -1.0700    -0.9560     0.2480 ca         1 EBM       0.234000
      5 C2           0.3010    -1.0860    -0.0980 ca         1 EBM      -0.120600
      6 C3           0.7880    -2.3720    -0.4490 ca         1 EBM      -0.096000
      7 C4          -0.0630    -3.4890    -0.4590 ca         1 EBM      -0.101000
      8 C5          -1.4140    -3.3470    -0.1180 ca         1 EBM      -0.099000
      9 C6          -1.9110    -2.0830     0.2360 ca         1 EBM      -0.088000
     10 C7           1.2410     0.0980    -0.1170 c          1 EBM       0.610700
     11 C8           3.6620     0.7760     0.0980 c3         1 EBM       0.111700
     12 C9           4.7850     0.3380     1.0570 c3         1 EBM      -0.108100
     13 C10          4.1720     0.9770    -1.3430 c3         1 EBM      -0.108100
     14 HN           2.7840    -1.1550     0.3620 hn         1 EBM       0.314500
     15 H3           1.8260    -2.5160    -0.7430 ha         1 EBM       0.119000
     16 H4           0.3260    -4.4660    -0.7380 ha         1 EBM       0.120000
     17 H5          -2.0740    -4.2120    -0.1250 ha         1 EBM       0.119000
     18 H6          -2.9560    -1.9740     0.5130 ha         1 EBM       0.130000
     19 H8           3.2780     1.7410     0.4590 h1         1 EBM       0.080700
     20 H9           5.2110    -0.6240     0.7470 hc         1 EBM       0.041700
     21 H9A          5.5900     1.0820     1.0730 hc         1 EBM       0.041700
     22 H9B          4.4000     0.2330     2.0780 hc         1 EBM       0.041700
     23 H10          4.5610     0.0370    -1.7530 hc         1 EBM       0.041700
     24 H10A         3.3630     1.3280    -1.9950 hc         1 EBM       0.041700
     25 H10B         4.9740     1.7230    -1.3670 hc         1 EBM       0.041700
@<TRIPOS>BOND
     1     1     4 1   
     2     2    10 1   
     3     2    11 1   
     4     2    14 1   
     5     3    10 2   
     6     4     5 ar  
     7     4     9 ar  
     8     5     6 ar  
     9     5    10 1   
    10     6     7 ar  
    11     6    15 1   
    12     7     8 ar  
    13     7    16 1   
    14     8     9 ar  
    15     8    17 1   
    16     9    18 1   
    17    11    12 1   
    18    11    13 1   
    19    11    19 1   
    20    12    20 1   
    21    12    21 1   
    22    12    22 1   
    23    13    23 1   
    24    13    24 1   
    25    13    25 1   
@<TRIPOS>SUBSTRUCTURE
     1 EBM         1 TEMP              0 ****  ****    0 ROOT
