@<TRIPOS>MOLECULE
EBN
   87    88     1     0     0
SMALL
abcg2


@<TRIPOS>ATOM
      1 CBE          2.6880    -0.3180     1.7940 c          1 EBN       0.603100
      2 OBF          2.5030     0.8280     1.4140 o          1 EBN      -0.600100
      3 CBG          3.4580    -0.6220     3.0680 c3         1 EBN      -0.111100
      4 CBH          4.8190     0.0090     3.0180 ca         1 EBN      -0.068300
      5 CBI          5.9300    -0.7230     2.6130 ca         1 EBN      -0.098000
      6 CBJ          7.1800    -0.1300     2.5300 ca         1 EBN      -0.098000
      7 CBK          7.3340     1.2100     2.8510 ca         1 EBN       0.120000
      8 CLL          8.8920     1.9380     2.7500 cl         1 EBN      -0.173000
      9 CBM          6.2290     1.9500     3.2560 ca         1 EBN       0.118000
     10 CLN          6.3930     3.6160     3.6660 cl         1 EBN      -0.172000
     11 CBO          4.9810     1.3530     3.3350 ca         1 EBN      -0.070000
     12 NBD          2.2360    -1.3820     1.1160 ns         1 EBN      -0.488900
     13 CAX          1.4690    -1.2300    -0.0940 c3         1 EBN       0.041700
     14 CAV          0.1530    -0.5110     0.1870 c          1 EBN       0.599100
     15 OAW         -0.5210    -0.7510     1.1750 o          1 EBN      -0.598100
     16 CAY          1.1630    -2.5990    -0.7040 c3         1 EBN      -0.093400
     17 CAZ          2.3970    -3.2920    -1.2680 c3         1 EBN      -0.075400
     18 CBA          2.0750    -4.6610    -1.8540 c3         1 EBN      -0.080400
     19 CBB          3.3020    -5.3490    -2.4310 c3         1 EBN       0.150800
     20 NBC          2.9590    -6.6510    -2.9860 n8         1 EBN      -0.996200
     21 N           -0.2220     0.3530    -0.7670 ns         1 EBN      -0.478900
     22 CA          -1.5380     0.9320    -0.8000 c3         1 EBN       0.037700
     23 C           -2.5830    -0.1480    -1.0950 c          1 EBN       0.585100
     24 O           -2.3220    -1.1340    -1.7670 o          1 EBN      -0.607100
     25 CB          -1.6010     2.0290    -1.8650 c3         1 EBN      -0.085400
     26 CG          -0.6950     3.2130    -1.5500 c3         1 EBN      -0.079400
     27 CD          -0.7520     4.2950    -2.6200 c3         1 EBN      -0.079400
     28 CE           0.1370     5.4840    -2.2890 c3         1 EBN       0.147800
     29 NZ           0.0760     6.4940    -3.3370 n8         1 EBN      -0.993200
     30 CAA         -7.4170     0.3210     1.9440 c6         1 EBN      -0.092400
     31 CAB         -8.6570    -0.4100     1.4390 c6         1 EBN       0.236500
     32 NAC         -9.8330     0.1500     2.0680 nu         1 EBN      -0.907400
     33 CAD        -11.0280    -0.5120     2.0930 c2         1 EBN       0.799100
     34 NAE        -12.0820     0.2630     2.5360 nv         1 EBN      -1.068200
     35 NAF        -11.0920    -1.7630     1.8130 n2         1 EBN      -0.896100
     36 CAG         -8.7200    -0.3610    -0.0880 c6         1 EBN      -0.092400
     37 CAH         -7.4450    -0.9080    -0.7200 c6         1 EBN      -0.068400
     38 CAI         -6.2090    -0.1610    -0.2260 c6         1 EBN      -0.083700
     39 CAJ         -6.1440    -0.2180     1.3010 c6         1 EBN      -0.068400
     40 CAK         -4.9560    -0.7220    -0.8850 c3         1 EBN       0.108000
     41 NAL         -3.8000     0.1050    -0.6010 ns         1 EBN      -0.500900
     42 HBG          2.8840    -0.2100     3.9010 hc         1 EBN       0.071200
     43 HBGA         3.5420    -1.6960     3.2390 hc         1 EBN       0.071200
     44 HBI          5.8270    -1.7700     2.3610 ha         1 EBN       0.117000
     45 HBJ          8.0390    -0.7090     2.2190 ha         1 EBN       0.131000
     46 HBO          4.1320     1.9410     3.6570 ha         1 EBN       0.142000
     47 HNBD         2.3650    -2.3050     1.4960 hn         1 EBN       0.324500
     48 HAX          2.0520    -0.6490    -0.8180 h1         1 EBN       0.067700
     49 HAY          0.6800    -3.2290     0.0500 hc         1 EBN       0.068700
     50 HAYA         0.4290    -2.4580    -1.5020 hc         1 EBN       0.068700
     51 HAZ          2.8420    -2.6560    -2.0400 hc         1 EBN       0.037700
     52 HAZA         3.1600    -3.4070    -0.4900 hc         1 EBN       0.037700
     53 HBAA         1.6330    -5.3000    -1.0830 hc         1 EBN       0.051200
     54 HBAB         1.3170    -4.5500    -2.6370 hc         1 EBN       0.051200
     55 HBB          3.7780    -4.6740    -3.1580 h1         1 EBN       0.024700
     56 HBBA         4.0350    -5.5010    -1.6330 h1         1 EBN       0.024700
     57 HNBC         2.3900    -6.5200    -3.8130 hn         1 EBN       0.392500
     58 HNBA         3.8000    -7.1140    -3.3070 hn         1 EBN       0.392500
     59 HN           0.3680     0.4630    -1.5770 hn         1 EBN       0.323500
     60 HA          -1.7550     1.3810     0.1750 h1         1 EBN       0.077700
     61 HB          -1.3430     1.6010    -2.8400 hc         1 EBN       0.053200
     62 HBA         -2.6340     2.3760    -1.9440 hc         1 EBN       0.053200
     63 HG          -0.9860     3.6350    -0.5820 hc         1 EBN       0.047700
     64 HGA          0.3390     2.8750    -1.4350 hc         1 EBN       0.047700
     65 HD          -0.4500     3.8800    -3.5860 hc         1 EBN       0.045200
     66 HDA         -1.7860     4.6390    -2.7380 hc         1 EBN       0.045200
     67 HE          -0.1380     5.8670    -1.2950 h1         1 EBN       0.029700
     68 HEA          1.1720     5.1400    -2.2060 h1         1 EBN       0.029700
     69 HNZ         -0.8590     6.8830    -3.3670 hn         1 EBN       0.391000
     70 HNZA         0.6780     7.2690    -3.0890 hn         1 EBN       0.391000
     71 HAA         -7.5120     1.3900     1.7180 hc         1 EBN       0.044450
     72 HAAA        -7.3540     0.2330     3.0310 hc         1 EBN       0.044450
     73 HAB         -8.5920    -1.4570     1.7480 h1         1 EBN       0.091700
     74 HNAC        -9.8710     1.1570     2.0910 hn         1 EBN       0.465000
     75 HNAE       -12.0290     1.2530     2.3500 hn         1 EBN       0.449000
     76 HNAA       -12.9960    -0.1040     2.3270 hn         1 EBN       0.449000
     77 HNAF       -12.0410    -2.1010     1.9250 hn         1 EBN       0.377400
     78 HAG         -9.5870    -0.9260    -0.4360 hc         1 EBN       0.044450
     79 HAGA        -8.8670     0.6780    -0.4030 hc         1 EBN       0.044450
     80 HAH         -7.3420    -1.9730    -0.4790 hc         1 EBN       0.047450
     81 HAHA        -7.5110    -0.8420    -1.8090 hc         1 EBN       0.047450
     82 HAI         -6.3090     0.8900    -0.5310 hc         1 EBN       0.044700
     83 HAJ         -5.2860     0.3420     1.6810 hc         1 EBN       0.047450
     84 HAJA        -5.9910    -1.2590     1.6090 hc         1 EBN       0.047450
     85 HAK         -4.7800    -1.7440    -0.5340 h1         1 EBN       0.053700
     86 HAKA        -5.1080    -0.7790    -1.9670 h1         1 EBN       0.053700
     87 HNAL        -3.9360     0.9360    -0.0470 hn         1 EBN       0.314500
@<TRIPOS>BOND
     1     1     2 2   
     2     1     3 1   
     3     1    12 1   
     4     3     4 1   
     5     3    42 1   
     6     3    43 1   
     7     4     5 ar  
     8     4    11 ar  
     9     5     6 ar  
    10     5    44 1   
    11     6     7 ar  
    12     6    45 1   
    13     7     8 1   
    14     7     9 ar  
    15     9    10 1   
    16     9    11 ar  
    17    11    46 1   
    18    12    13 1   
    19    12    47 1   
    20    13    14 1   
    21    13    16 1   
    22    13    48 1   
    23    14    15 2   
    24    14    21 1   
    25    16    17 1   
    26    16    49 1   
    27    16    50 1   
    28    17    18 1   
    29    17    51 1   
    30    17    52 1   
    31    18    19 1   
    32    18    53 1   
    33    18    54 1   
    34    19    20 1   
    35    19    55 1   
    36    19    56 1   
    37    20    57 1   
    38    20    58 1   
    39    21    22 1   
    40    21    59 1   
    41    22    23 1   
    42    22    25 1   
    43    22    60 1   
    44    23    24 2   
    45    23    41 1   
    46    25    26 1   
    47    25    61 1   
    48    25    62 1   
    49    26    27 1   
    50    26    63 1   
    51    26    64 1   
    52    27    28 1   
    53    27    65 1   
    54    27    66 1   
    55    28    29 1   
    56    28    67 1   
    57    28    68 1   
    58    29    69 1   
    59    29    70 1   
    60    30    31 1   
    61    30    39 1   
    62    30    71 1   
    63    30    72 1   
    64    31    32 1   
    65    31    36 1   
    66    31    73 1   
    67    32    33 1   
    68    32    74 1   
    69    33    34 1   
    70    33    35 2   
    71    34    75 1   
    72    34    76 1   
    73    35    77 1   
    74    36    37 1   
    75    36    78 1   
    76    36    79 1   
    77    37    38 1   
    78    37    80 1   
    79    37    81 1   
    80    38    39 1   
    81    38    40 1   
    82    38    82 1   
    83    39    83 1   
    84    39    84 1   
    85    40    41 1   
    86    40    85 1   
    87    40    86 1   
    88    41    87 1   
@<TRIPOS>SUBSTRUCTURE
     1 EBN         1 TEMP              0 ****  ****    0 ROOT
