@<TRIPOS>MOLECULE
EBN
   87    88     1     0     0
SMALL
No Charge or Current Charge


@<TRIPOS>ATOM
      1 CBE          4.0860     0.9060     0.3160 c          1 EBN       0.603100
      2 OBF          4.4770     0.9320    -0.8420 o          1 EBN      -0.600100
      3 CBG          5.0310     1.0620     1.5080 c3         1 EBN      -0.111100
      4 CBH          5.6080    -0.3050     1.8660 ca         1 EBN      -0.068300
      5 CBI          5.1730    -0.9850     3.0200 ca         1 EBN      -0.098000
      6 CBJ          5.6620    -2.2710     3.3120 ca         1 EBN      -0.098000
      7 CBK          6.5850    -2.8890     2.4520 ca         1 EBN       0.120000
      8 ClL          7.1660    -4.5090     2.8380 cl         1 EBN      -0.173000
      9 CBM          7.0250    -2.2130     1.2950 ca         1 EBN       0.118000
     10 ClN          8.1700    -2.9630     0.1830 cl         1 EBN      -0.172000
     11 CBO          6.5390    -0.9260     1.0090 ca         1 EBN      -0.070000
     12 NBD          2.7750     0.6440     0.6470 ns         1 EBN      -0.488900
     13 CAX          1.7400     0.1750    -0.3020 c3         1 EBN       0.041700
     14 CAV          0.3660     0.8370     0.0160 c          1 EBN       0.599100
     15 OAW          0.1380     1.4430     1.0560 o          1 EBN      -0.598100
     16 CAY          1.6400    -1.3790    -0.2880 c3         1 EBN      -0.093400
     17 CAZ          2.9830    -2.1240    -0.5030 c3         1 EBN      -0.075400
     18 CBA          2.8320    -3.6590    -0.5540 c3         1 EBN      -0.080400
     19 CBB          4.1870    -4.3830    -0.7030 c3         1 EBN       0.150800
     20 NBC          4.0150    -5.8450    -0.7600 n8         1 EBN      -0.996200
     21 N           -0.5910     0.6900    -0.9670 ns         1 EBN      -0.478900
     22 CA          -1.9720     1.2230    -0.9050 c3         1 EBN       0.037700
     23 C           -2.9720     0.1850    -1.4950 c          1 EBN       0.585100
     24 O           -2.6190    -0.7960    -2.1380 o          1 EBN      -0.607100
     25 CB          -2.0830     2.5930    -1.6310 c3         1 EBN      -0.085400
     26 CG          -1.1960     3.7140    -1.0380 c3         1 EBN      -0.079400
     27 CD          -1.4020     5.0780    -1.7320 c3         1 EBN      -0.079400
     28 CE          -0.5100     6.1900    -1.1420 c3         1 EBN       0.147800
     29 NZ          -0.7280     7.4790    -1.8250 n8         1 EBN      -0.993200
     30 CAA         -7.7360    -0.4420     1.5210 c6         1 EBN      -0.092400
     31 CAB         -8.9160    -1.2550     0.9290 c6         1 EBN       0.236500
     32 NAC        -10.1240    -1.0060     1.7290 nu         1 EBN      -0.907400
     33 CAD        -11.1700    -1.8090     1.8080 c2         1 EBN       0.799100
     34 NAE        -12.0120    -1.2070     2.6050 nv         1 EBN      -1.068200
     35 NAF        -11.1730    -3.0070     1.4660 n2         1 EBN      -0.896100
     36 CAG         -9.1620    -0.8490    -0.5480 c6         1 EBN      -0.092400
     37 CAH         -7.8810    -1.0250    -1.4010 c6         1 EBN      -0.068400
     38 CAI         -6.6890    -0.2200    -0.8130 c6         1 EBN      -0.083700
     39 CAJ         -6.4500    -0.6170     0.6740 c6         1 EBN      -0.068400
     40 CAK         -5.4130    -0.4010    -1.6830 c3         1 EBN       0.108000
     41 NAL         -4.3020     0.4440    -1.2390 ns         1 EBN      -0.500900
     42 HBG          5.8430     1.7490     1.2410 hc         1 EBN       0.071200
     43 HBGA         4.4760     1.4530     2.3680 hc         1 EBN       0.071200
     44 HBI          4.4470    -0.5260     3.6880 ha         1 EBN       0.117000
     45 HBJ          5.3190    -2.7930     4.2030 ha         1 EBN       0.131000
     46 HBO          6.8760    -0.4170     0.1080 ha         1 EBN       0.142000
     47 HNBD         2.5400     0.6700     1.6330 hn         1 EBN       0.324500
     48 HAX          2.0170     0.4980    -1.3140 h1         1 EBN       0.067700
     49 HAY          1.2140    -1.6960     0.6730 hc         1 EBN       0.068700
     50 HAYA         0.9310    -1.6980    -1.0620 hc         1 EBN       0.068700
     51 HAZ          3.4450    -1.7760    -1.4360 hc         1 EBN       0.037700
     52 HAZA         3.6730    -1.8770     0.3110 hc         1 EBN       0.037700
     53 HBAA         2.3400    -4.0030     0.3640 hc         1 EBN       0.051200
     54 HBAB         2.1790    -3.9300    -1.3930 hc         1 EBN       0.051200
     55 HBB          4.6870    -4.0510    -1.6230 h1         1 EBN       0.024700
     56 HBBA         4.8330    -4.1390     0.1520 h1         1 EBN       0.024700
     57 HNBC         3.4870    -6.0870    -1.6070 hn         1 EBN       0.392500
     58 HNBA         4.9310    -6.2830    -0.9150 hn         1 EBN       0.392500
     59 HN          -0.3310     0.1450    -1.7820 hn         1 EBN       0.323500
     60 HA          -2.2530     1.3600     0.1470 h1         1 EBN       0.077700
     61 HB          -1.8310     2.4570    -2.6910 hc         1 EBN       0.053200
     62 HBA         -3.1280     2.9270    -1.6010 hc         1 EBN       0.053200
     63 HG          -1.4140     3.8180     0.0330 hc         1 EBN       0.047700
     64 HGA         -0.1400     3.4310    -1.1250 hc         1 EBN       0.047700
     65 HD          -1.1870     4.9730    -2.8030 hc         1 EBN       0.045200
     66 HDA         -2.4550     5.3730    -1.6420 hc         1 EBN       0.045200
     67 HE          -0.7330     6.3150    -0.0730 h1         1 EBN       0.029700
     68 HEA          0.5470     5.9110    -1.2470 h1         1 EBN       0.029700
     69 HNZ         -1.6950     7.7850    -1.6600 hn         1 EBN       0.391000
     70 HNZA        -0.1650     8.2020    -1.3630 hn         1 EBN       0.391000
     71 HAA         -7.9990     0.6240     1.5680 hc         1 EBN       0.044450
     72 HAAA        -7.5400    -0.7650     2.5530 hc         1 EBN       0.044450
     73 HAB         -8.6410    -2.3230     0.9630 h1         1 EBN       0.091700
     74 HNAC       -10.0310    -0.4310     2.5540 hn         1 EBN       0.465000
     75 HNAE       -12.0930    -0.2290     2.3650 hn         1 EBN       0.449000
     76 HNAA       -12.9040    -1.6770     2.6760 hn         1 EBN       0.449000
     77 HNAF       -12.0470    -3.4230     1.8020 hn         1 EBN       0.377400
     78 HAG         -9.9710    -1.4580    -0.9740 hc         1 EBN       0.044450
     79 HAGA        -9.4960     0.1960    -0.5990 hc         1 EBN       0.044450
     80 HAH         -7.6200    -2.0920    -1.4570 hc         1 EBN       0.047450
     81 HAHA        -8.0810    -0.7010    -2.4320 hc         1 EBN       0.047450
     82 HAI         -6.9440     0.8490    -0.8550 hc         1 EBN       0.044700
     83 HAJ         -5.6470    -0.0060     1.1090 hc         1 EBN       0.047450
     84 HAJA        -6.1100    -1.6610     0.7310 hc         1 EBN       0.047450
     85 HAK         -5.1060    -1.4550    -1.6500 h1         1 EBN       0.053700
     86 HAKA        -5.6470    -0.1450    -2.7250 h1         1 EBN       0.053700
     87 HNAL        -4.5150     1.2760    -0.7020 hn         1 EBN       0.314500
@<TRIPOS>BOND
     1     1     2 2   
     2     1     3 1   
     3     1    12 1   
     4     3     4 1   
     5     3    42 1   
     6     3    43 1   
     7     4     5 ar  
     8     4    11 ar  
     9     5     6 ar  
    10     5    44 1   
    11     6     7 ar  
    12     6    45 1   
    13     7     8 1   
    14     7     9 ar  
    15     9    10 1   
    16     9    11 ar  
    17    11    46 1   
    18    12    13 1   
    19    12    47 1   
    20    13    14 1   
    21    13    16 1   
    22    13    48 1   
    23    14    15 2   
    24    14    21 1   
    25    16    17 1   
    26    16    49 1   
    27    16    50 1   
    28    17    18 1   
    29    17    51 1   
    30    17    52 1   
    31    18    19 1   
    32    18    53 1   
    33    18    54 1   
    34    19    20 1   
    35    19    55 1   
    36    19    56 1   
    37    20    57 1   
    38    20    58 1   
    39    21    22 1   
    40    21    59 1   
    41    22    23 1   
    42    22    25 1   
    43    22    60 1   
    44    23    24 2   
    45    23    41 1   
    46    25    26 1   
    47    25    61 1   
    48    25    62 1   
    49    26    27 1   
    50    26    63 1   
    51    26    64 1   
    52    27    28 1   
    53    27    65 1   
    54    27    66 1   
    55    28    29 1   
    56    28    67 1   
    57    28    68 1   
    58    29    69 1   
    59    29    70 1   
    60    30    31 1   
    61    30    39 1   
    62    30    71 1   
    63    30    72 1   
    64    31    32 1   
    65    31    36 1   
    66    31    73 1   
    67    32    33 1   
    68    32    74 1   
    69    33    34 1   
    70    33    35 2   
    71    34    75 1   
    72    34    76 1   
    73    35    77 1   
    74    36    37 1   
    75    36    78 1   
    76    36    79 1   
    77    37    38 1   
    78    37    80 1   
    79    37    81 1   
    80    38    39 1   
    81    38    40 1   
    82    38    82 1   
    83    39    83 1   
    84    39    84 1   
    85    40    41 1   
    86    40    85 1   
    87    40    86 1   
    88    41    87 1   
@<TRIPOS>SUBSTRUCTURE
     1 EBN         1 TEMP              0 ****  ****    0 ROOT
