@<TRIPOS>MOLECULE
EBP
   35    35     1     0     0
SMALL
bcc


@<TRIPOS>ATOM
      1 C1          -0.7500     0.5190    -1.3060 ca         1 EBP      -0.076300
      2 C2          -1.4640    -0.4340    -2.0270 ca         1 EBP      -0.110000
      3 C3          -1.1190    -0.7380    -3.3360 ca         1 EBP      -0.127500
      4 C4          -0.0490    -0.1070    -3.9650 ca         1 EBP      -0.072300
      5 C5           0.6670     0.8410    -3.2360 ca         1 EBP      -0.127500
      6 C6           0.3250     1.1470    -1.9270 ca         1 EBP      -0.110000
      7 C7          -1.1060     0.8310     0.1190 c3         1 EBP      -0.225300
      8 C8           0.3050    -0.4170    -5.3910 c3         1 EBP      -0.046800
      9 C9          -1.8130    -0.3670     3.4120 c3         1 EBP       0.195400
     10 C10         -2.0300     0.4000     4.6930 c3         1 EBP      -0.096100
     11 C11          2.3060    -0.5570     1.7690 c3         1 EBP       0.195400
     12 C12          3.6210    -0.0470     1.2340 c3         1 EBP      -0.096100
     13 P           -0.2760    -0.2990     1.2580 p5         1 EBP       1.420300
     14 O1          -0.6750     0.1950     2.7380 os         1 EBP      -0.584200
     15 O2           1.2420     0.1890     1.1500 os         1 EBP      -0.584200
     16 O3          -0.5240    -1.7410     1.0120 o          1 EBP      -0.802300
     17 H2          -2.3030    -0.9410    -1.5650 ha         1 EBP       0.134000
     18 H3          -1.6930    -1.4820    -3.8760 ha         1 EBP       0.129000
     19 H5           1.5080     1.3460    -3.6960 ha         1 EBP       0.129000
     20 H6           0.9010     1.8870    -1.3850 ha         1 EBP       0.134000
     21 H71         -2.1810     0.7250     0.2850 hc         1 EBP       0.084200
     22 H72         -0.8410     1.8560     0.3850 hc         1 EBP       0.084200
     23 H81         -0.2520     0.2200    -6.0810 hc         1 EBP       0.041367
     24 H82          1.3650    -0.2540    -5.5840 hc         1 EBP       0.041367
     25 H83          0.0700    -1.4510    -5.6440 hc         1 EBP       0.041367
     26 H91         -1.6290    -1.4220     3.6220 h1         1 EBP       0.038200
     27 H92         -2.7000    -0.3030     2.7760 h1         1 EBP       0.038200
     28 H101        -2.8830    -0.0220     5.2260 hc         1 EBP       0.045700
     29 H102        -1.1610     0.3350     5.3470 hc         1 EBP       0.045700
     30 H103        -2.2430     1.4510     4.4990 hc         1 EBP       0.045700
     31 H111         2.2520    -0.4280     2.8520 h1         1 EBP       0.038200
     32 H112         2.1890    -1.6200     1.5510 h1         1 EBP       0.038200
     33 H121         4.4370    -0.5940     1.7060 hc         1 EBP       0.045700
     34 H122         3.6950    -0.1960     0.1570 hc         1 EBP       0.045700
     35 H123         3.7570     1.0120     1.4500 hc         1 EBP       0.045700
@<TRIPOS>BOND
     1     1     2 ar  
     2     1     6 ar  
     3     1     7 1   
     4     2     3 ar  
     5     2    17 1   
     6     3     4 ar  
     7     3    18 1   
     8     4     5 ar  
     9     4     8 1   
    10     5     6 ar  
    11     5    19 1   
    12     6    20 1   
    13     7    13 1   
    14     7    21 1   
    15     7    22 1   
    16     8    23 1   
    17     8    24 1   
    18     8    25 1   
    19     9    10 1   
    20     9    14 1   
    21     9    26 1   
    22     9    27 1   
    23    10    28 1   
    24    10    29 1   
    25    10    30 1   
    26    11    12 1   
    27    11    15 1   
    28    11    31 1   
    29    11    32 1   
    30    12    33 1   
    31    12    34 1   
    32    12    35 1   
    33    13    14 1   
    34    13    15 1   
    35    13    16 2   
@<TRIPOS>SUBSTRUCTURE
     1 EBP         1 TEMP              0 ****  ****    0 ROOT
