@<TRIPOS>MOLECULE
EBP
   35    35     1     0     0
SMALL
No Charge or Current Charge


@<TRIPOS>ATOM
      1 C1          -0.9580     0.4620    -1.3770 ca         1 EBP      -0.076300
      2 C2          -1.1500    -0.6960    -2.1510 ca         1 EBP      -0.092000
      3 C3          -0.4320    -0.8780    -3.3460 ca         1 EBP      -0.109500
      4 C4           0.4860     0.0970    -3.7780 ca         1 EBP      -0.072300
      5 C5           0.6750     1.2580    -3.0050 ca         1 EBP      -0.109500
      6 C6          -0.0430     1.4390    -1.8100 ca         1 EBP      -0.092000
      7 C7          -1.7170     0.6470    -0.0700 c3         1 EBP      -0.383100
      8 C8           1.2620    -0.0990    -5.0710 c3         1 EBP      -0.046800
      9 C9          -1.9040    -0.1230     3.9270 c3         1 EBP       0.218600
     10 C10         -0.5050    -0.2780     4.5530 c3         1 EBP      -0.096100
     11 C11          1.6980     0.0500     1.7740 c3         1 EBP       0.218600
     12 C12          2.1900    -0.6000     0.4640 c3         1 EBP      -0.096100
     13 P           -0.9470    -0.1260     1.4020 p5         1 EBP       1.348800
     14 O1          -1.8300     0.4730     2.6200 os         1 EBP      -0.607400
     15 O2           0.4410     0.6970     1.5310 os         1 EBP      -0.607400
     16 O3          -0.8570    -1.6120     1.3360 o          1 EBP      -0.573000
     17 H2          -1.8530    -1.4610    -1.8260 ha         1 EBP       0.116000
     18 H3          -0.5900    -1.7780    -3.9350 ha         1 EBP       0.111000
     19 H5           1.3810     2.0200    -3.3280 ha         1 EBP       0.111000
     20 H6           0.1200     2.3370    -1.2170 ha         1 EBP       0.116000
     21 H71         -2.7240     0.2220    -0.1300 hc         1 EBP       0.084200
     22 H72         -1.8260     1.7070     0.1820 hc         1 EBP       0.084200
     23 H81          0.7160     0.3240    -5.9220 hc         1 EBP       0.041367
     24 H82          2.2430     0.3900    -5.0270 hc         1 EBP       0.041367
     25 H83          1.4340    -1.1620    -5.2780 hc         1 EBP       0.041367
     26 H91         -2.3940    -1.1050     3.8800 h1         1 EBP       0.038200
     27 H92         -2.5100     0.5150     4.5830 h1         1 EBP       0.038200
     28 H101        -0.6000    -0.4980     5.6230 hc         1 EBP       0.045700
     29 H102         0.0420    -1.1110     4.0970 hc         1 EBP       0.045700
     30 H103         0.0780     0.6450     4.4480 hc         1 EBP       0.045700
     31 H111         2.4400     0.7860     2.1100 h1         1 EBP       0.038200
     32 H112         1.6130    -0.7200     2.5510 h1         1 EBP       0.038200
     33 H121         3.1880    -1.0280     0.6110 hc         1 EBP       0.045700
     34 H122         1.5250    -1.4070     0.1360 hc         1 EBP       0.045700
     35 H123         2.2550     0.1470    -0.3350 hc         1 EBP       0.045700
@<TRIPOS>BOND
     1     1     2 ar  
     2     1     6 ar  
     3     1     7 1   
     4     2     3 ar  
     5     2    17 1   
     6     3     4 ar  
     7     3    18 1   
     8     4     5 ar  
     9     4     8 1   
    10     5     6 ar  
    11     5    19 1   
    12     6    20 1   
    13     7    13 1   
    14     7    21 1   
    15     7    22 1   
    16     8    23 1   
    17     8    24 1   
    18     8    25 1   
    19     9    10 1   
    20     9    14 1   
    21     9    26 1   
    22     9    27 1   
    23    10    28 1   
    24    10    29 1   
    25    10    30 1   
    26    11    12 1   
    27    11    15 1   
    28    11    31 1   
    29    11    32 1   
    30    12    33 1   
    31    12    34 1   
    32    12    35 1   
    33    13    14 1   
    34    13    15 1   
    35    13    16 2   
@<TRIPOS>SUBSTRUCTURE
     1 EBP         1 TEMP              0 ****  ****    0 ROOT
