@<TRIPOS>MOLECULE
EBQ
   37    37     1     0     0
SMALL
No Charge or Current Charge


@<TRIPOS>ATOM
      1 O17          4.8380    -0.2470     0.8090 oh         1 EBQ      -0.658000
      2 C9           4.1960     0.2750    -0.3580 c3         1 EBQ       0.166300
      3 C16          5.1400     0.0900    -1.5620 c3         1 EBQ      -0.124100
      4 C8           2.8360    -0.4300    -0.5620 c3         1 EBQ      -0.116400
      5 C7           1.8330    -0.1710     0.5790 c3         1 EBQ       0.164600
      6 O1           0.6040    -0.8250     0.2250 os         1 EBQ      -0.475000
      7 C1          -0.4770    -0.7020     1.1700 c6         1 EBQ       0.359300
      8 C2          -1.6870    -1.6030     0.7430 c6         1 EBQ       0.122300
      9 O2          -1.2820    -2.9760     0.5200 oh         1 EBQ      -0.707000
     10 C3          -2.3440    -1.0290    -0.5480 c6         1 EBQ       0.138300
     11 O3          -3.5050    -1.8030    -0.9070 oh         1 EBQ      -0.673000
     12 C4          -2.7210     0.4660    -0.3510 c6         1 EBQ       0.148300
     13 O4          -3.3100     0.9760    -1.5630 oh         1 EBQ      -0.717000
     14 C5          -1.4470     1.2610     0.0700 c6         1 EBQ       0.169300
     15 O5          -0.8820     0.6810     1.2800 os         1 EBQ      -0.466000
     16 C6          -1.7490     2.7720     0.3430 c3         1 EBQ       0.169600
     17 O6          -0.5950     3.5180     0.7860 oh         1 EBQ      -0.712000
     18 H1           5.0920    -1.1730     0.6050 ho         1 EBQ       0.436000
     19 H2           4.0100     1.3530    -0.2350 h1         1 EBQ       0.073700
     20 H3           5.3470    -0.9720    -1.7430 hc         1 EBQ       0.042033
     21 H4           4.6900     0.5100    -2.4690 hc         1 EBQ       0.042033
     22 H5           2.3920    -0.0740    -1.5000 hc         1 EBQ       0.054200
     23 H6           2.9900    -1.5100    -0.6710 hc         1 EBQ       0.054200
     24 H7           2.2270    -0.5710     1.5230 h1         1 EBQ       0.042200
     25 H8           1.6820     0.9100     0.6950 h1         1 EBQ       0.042200
     26 H9          -0.1250    -1.0470     2.1550 h2         1 EBQ       0.064700
     27 H10         -2.4300    -1.5640     1.5530 h1         1 EBQ       0.054700
     28 H11         -0.3760    -2.9310     0.1290 ho         1 EBQ       0.509000
     29 H12         -1.5980    -1.0850    -1.3570 h1         1 EBQ       0.072700
     30 H13         -3.2720    -2.7340    -0.6830 ho         1 EBQ       0.464000
     31 H14         -3.4510     0.5330     0.4700 h1         1 EBQ       0.047700
     32 H15         -3.8770     0.2360    -1.8930 ho         1 EBQ       0.524000
     33 H16         -0.7000     1.2060    -0.7360 h1         1 EBQ       0.073700
     34 H17         -2.1450     3.2150    -0.5800 h1         1 EBQ       0.034200
     35 H18         -2.5450     2.8290     1.0970 h1         1 EBQ       0.034200
     36 H19         -0.9060     4.4290     0.9970 ho         1 EBQ       0.503000
     37 H20          6.0930     0.6040    -1.3880 hc         1 EBQ       0.042033
@<TRIPOS>BOND
     1     1     2 1   
     2     1    18 1   
     3     2     3 1   
     4     2     4 1   
     5     2    19 1   
     6     3    20 1   
     7     3    21 1   
     8     3    37 1   
     9     4     5 1   
    10     4    22 1   
    11     4    23 1   
    12     5     6 1   
    13     5    24 1   
    14     5    25 1   
    15     6     7 1   
    16     7     8 1   
    17     7    15 1   
    18     7    26 1   
    19     8     9 1   
    20     8    10 1   
    21     8    27 1   
    22     9    28 1   
    23    10    11 1   
    24    10    12 1   
    25    10    29 1   
    26    11    30 1   
    27    12    13 1   
    28    12    14 1   
    29    12    31 1   
    30    13    32 1   
    31    14    15 1   
    32    14    16 1   
    33    14    33 1   
    34    16    17 1   
    35    16    34 1   
    36    16    35 1   
    37    17    36 1   
@<TRIPOS>SUBSTRUCTURE
     1 EBQ         1 TEMP              0 ****  ****    0 ROOT
