@<TRIPOS>MOLECULE
EBQ
   37    37     1     0     0
SMALL
bcc


@<TRIPOS>ATOM
      1 O17          4.6890     0.1830     0.8180 oh         1 EBQ      -0.595800
      2 C9           4.1780     0.2970    -0.4990 c3         1 EBQ       0.143100
      3 C16          5.2010    -0.1460    -1.5350 c3         1 EBQ      -0.124100
      4 C8           2.8600    -0.4530    -0.6660 c3         1 EBQ      -0.116400
      5 C7           1.8070    -0.0270     0.3390 c3         1 EBQ       0.141400
      6 O1           0.6020    -0.7070     0.0330 os         1 EBQ      -0.428600
      7 C1          -0.3660    -0.6540     1.0220 c6         1 EBQ       0.312900
      8 C2          -1.5250    -1.5700     0.6220 c6         1 EBQ       0.099100
      9 O2          -1.1000    -2.8710     0.3050 oh         1 EBQ      -0.584800
     10 C3          -2.2500    -0.9970    -0.5890 c6         1 EBQ       0.115100
     11 O3          -3.4180    -1.7270    -0.8900 oh         1 EBQ      -0.610800
     12 C4          -2.6750     0.4400    -0.3100 c6         1 EBQ       0.125100
     13 O4          -3.2180     1.0480    -1.4560 oh         1 EBQ      -0.594800
     14 C5          -1.4690     1.2640     0.1380 c6         1 EBQ       0.146100
     15 O5          -0.8450     0.6440     1.2500 os         1 EBQ      -0.419600
     16 C6          -1.8680     2.6590     0.5710 c3         1 EBQ       0.146400
     17 O6          -0.7020     3.3920     0.8660 oh         1 EBQ      -0.589800
     18 H1           4.8640    -0.7490     0.9900 ho         1 EBQ       0.397000
     19 H2           3.9860     1.3660    -0.6350 h1         1 EBQ       0.073700
     20 H3           5.4180    -1.2130    -1.4420 hc         1 EBQ       0.042033
     21 H4           4.8330     0.0300    -2.5460 hc         1 EBQ       0.042033
     22 H5           2.4860    -0.2710    -1.6780 hc         1 EBQ       0.054200
     23 H6           3.0370    -1.5310    -0.5820 hc         1 EBQ       0.054200
     24 H7           2.1290    -0.2710     1.3590 h1         1 EBQ       0.042200
     25 H8           1.6640     1.0600     0.2950 h1         1 EBQ       0.042200
     26 H9           0.0520    -0.9690     1.9900 h2         1 EBQ       0.064700
     27 H10         -2.2270    -1.5810     1.4680 h1         1 EBQ       0.054700
     28 H11         -0.9130    -3.3430     1.1220 ho         1 EBQ       0.410000
     29 H12         -1.5650    -0.9920    -1.4500 h1         1 EBQ       0.072700
     30 H13         -3.1600    -2.5890    -1.2300 ho         1 EBQ       0.425000
     31 H14         -3.4090     0.4260     0.5130 h1         1 EBQ       0.047700
     32 H15         -3.9760     0.5270    -1.7410 ho         1 EBQ       0.425000
     33 H16         -0.7660     1.3460    -0.7040 h1         1 EBQ       0.073700
     34 H17         -2.4430     3.1230    -0.2360 h1         1 EBQ       0.034200
     35 H18         -2.5340     2.5850     1.4420 h1         1 EBQ       0.034200
     36 H19         -0.9680     4.2830     1.1100 ho         1 EBQ       0.404000
     37 H20          6.1360     0.4040    -1.4190 hc         1 EBQ       0.042033
@<TRIPOS>BOND
     1     1     2 1   
     2     1    18 1   
     3     2     3 1   
     4     2     4 1   
     5     2    19 1   
     6     3    20 1   
     7     3    21 1   
     8     3    37 1   
     9     4     5 1   
    10     4    22 1   
    11     4    23 1   
    12     5     6 1   
    13     5    24 1   
    14     5    25 1   
    15     6     7 1   
    16     7     8 1   
    17     7    15 1   
    18     7    26 1   
    19     8     9 1   
    20     8    10 1   
    21     8    27 1   
    22     9    28 1   
    23    10    11 1   
    24    10    12 1   
    25    10    29 1   
    26    11    30 1   
    27    12    13 1   
    28    12    14 1   
    29    12    31 1   
    30    13    32 1   
    31    14    15 1   
    32    14    16 1   
    33    14    33 1   
    34    16    17 1   
    35    16    34 1   
    36    16    35 1   
    37    17    36 1   
@<TRIPOS>SUBSTRUCTURE
     1 EBQ         1 TEMP              0 ****  ****    0 ROOT
