@<TRIPOS>MOLECULE
EBS
   48    51     1     0     0
SMALL
bcc


@<TRIPOS>ATOM
      1 C1           1.9620     2.5020    -1.0460 ca         1 EBS      -0.092100
      2 C2           3.1030     1.7790    -1.4140 ca         1 EBS       0.035800
      3 C3           0.8230     1.8690    -0.6010 ca         1 EBS       0.022000
      4 C4           3.0930     0.3930    -1.3470 ca         1 EBS      -0.196000
      5 C5           0.8210     0.4780    -0.5250 ca         1 EBS      -0.252500
      6 C6           1.9450    -0.2470    -0.8970 ca         1 EBS      -0.012000
      7 N7           4.1430     2.5870    -1.8160 na         1 EBS      -0.192800
      8 C8           3.8470     3.9210    -1.8270 cc         1 EBS       0.538200
      9 S9           2.2110     4.2240    -1.2460 ss         1 EBS      -0.143100
     10 C10          6.7390     8.4200    -3.4210 ca         1 EBS      -0.092100
     11 C11          5.6100     9.1350    -3.0070 ca         1 EBS       0.035800
     12 C12          7.8380     9.0570    -3.9590 ca         1 EBS       0.022000
     13 C13          5.5770    10.5150    -3.1510 ca         1 EBS      -0.196000
     14 C14          7.8040    10.4420    -4.0900 ca         1 EBS      -0.252500
     15 C15          6.6820    11.1590    -3.6910 ca         1 EBS      -0.012000
     16 N16          4.6280     8.3280    -2.4800 na         1 EBS      -0.192800
     17 C17          4.9200     6.9930    -2.5060 cc         1 EBS       0.538200
     18 S18          6.5280     6.7000    -3.1650 ss         1 EBS      -0.143100
     19 N19          4.1240     6.0850    -2.0990 nf         1 EBS      -0.494200
     20 N20          4.6590     4.8280    -2.2080 nf         1 EBS      -0.494200
     21 C22          2.2970     8.8310    -3.1320 c3         1 EBS      -0.114100
     22 C24          5.4160     2.0930    -2.3140 c3         1 EBS       0.061800
     23 C25          5.3880     1.8210    -3.8080 c3         1 EBS      -0.114100
     24 S26         -0.6230    -0.3470     0.1320 s6         1 EBS       1.266600
     25 O39         10.0480    11.5870    -3.4830 o          1 EBS      -0.696867
     26 O45         -1.7750     0.3790    -0.4310 o          1 EBS      -0.696867
     27 O46         -0.5310    -1.7440    -0.3250 o          1 EBS      -0.696867
     28 O47         -0.5090    -0.2030     1.5940 o          1 EBS      -0.696867
     29 O48          9.9130    10.3720    -5.6160 o          1 EBS      -0.696867
     30 O49          8.7420    12.5230    -5.3450 o          1 EBS      -0.696867
     31 H3          -0.0530     2.4430    -0.3270 ha         1 EBS       0.156000
     32 H4           3.9540    -0.1910    -1.6420 ha         1 EBS       0.119000
     33 H6           1.9340    -1.3270    -0.8490 ha         1 EBS       0.147000
     34 H12          8.7000     8.4880    -4.2810 ha         1 EBS       0.156000
     35 H13          4.7110    11.0930    -2.8570 ha         1 EBS       0.119000
     36 H15          6.6530    12.2330    -3.8080 ha         1 EBS       0.147000
     37 H211         3.0120     8.1600    -1.2080 h1         1 EBS       0.057450
     38 H212         3.4750     9.8000    -1.5970 h1         1 EBS       0.057450
     39 H221         2.6070     9.4750    -3.9550 hc         1 EBS       0.041700
     40 H222         2.1230     7.8290    -3.5240 hc         1 EBS       0.041700
     41 H223         1.3510     9.2110    -2.7460 hc         1 EBS       0.041700
     42 H241         6.1730     2.8360    -2.0730 h1         1 EBS       0.057450
     43 H242         5.6690     1.1920    -1.7550 h1         1 EBS       0.057450
     44 H251         4.6480     1.0620    -4.0630 hc         1 EBS       0.041700
     45 H252         5.1550     2.7290    -4.3620 hc         1 EBS       0.041700
     46 H253         6.3640     1.4640    -4.1370 hc         1 EBS       0.041700
     47 C21          3.3340     8.8070    -2.0220 c3         1 EBS       0.061800
     48 S23          9.2510    11.3060    -4.6900 s6         1 EBS       1.266600
@<TRIPOS>BOND
     1     1     2 ar  
     2     1     3 ar  
     3     1     9 1   
     4     2     4 ar  
     5     2     7 1   
     6     3     5 ar  
     7     3    31 1   
     8     4     6 ar  
     9     4    32 1   
    10     5     6 ar  
    11     5    24 1   
    12     6    33 1   
    13     7     8 1   
    14     7    22 1   
    15     8     9 1   
    16     8    20 2   
    17    10    11 ar  
    18    10    12 ar  
    19    10    18 1   
    20    11    13 ar  
    21    11    16 1   
    22    12    14 ar  
    23    12    34 1   
    24    13    15 ar  
    25    13    35 1   
    26    14    15 ar  
    27    14    48 1   
    28    15    36 1   
    29    16    17 1   
    30    16    47 1   
    31    17    18 1   
    32    17    19 2   
    33    19    20 1   
    34    21    39 1   
    35    21    40 1   
    36    21    41 1   
    37    21    47 1   
    38    22    23 1   
    39    22    42 1   
    40    22    43 1   
    41    23    44 1   
    42    23    45 1   
    43    23    46 1   
    44    24    26 1   
    45    24    27 1   
    46    24    28 1   
    47    25    48 1   
    48    29    48 1   
    49    30    48 1   
    50    37    47 1   
    51    38    47 1   
@<TRIPOS>SUBSTRUCTURE
     1 EBS         1 TEMP              0 ****  ****    0 ROOT
