@<TRIPOS>MOLECULE
EBS
   48    51     1     0     0
SMALL
No Charge or Current Charge


@<TRIPOS>ATOM
      1 C1           1.9340     2.3620    -1.0330 ca         1 EBS      -0.219000
      2 C2           3.0650     1.6560    -1.3990 ca         1 EBS       0.035800
      3 C3           0.7780     1.7160    -0.5660 ca         1 EBS       0.040000
      4 C4           3.0740     0.2510    -1.3100 ca         1 EBS      -0.178000
      5 C5           0.7700     0.3090    -0.4750 ca         1 EBS      -0.252500
      6 C6           1.9250    -0.4180    -0.8440 ca         1 EBS       0.006000
      7 N7           4.1040     2.4690    -1.8340 na         1 EBS      -0.222100
      8 C8           3.7690     3.8280    -1.8150 cc         1 EBS       0.538200
      9 S9           2.1070     4.1170    -1.2180 ss         1 EBS      -0.016200
     10 C10          6.7480     8.5510    -3.4320 ca         1 EBS      -0.219000
     11 C11          5.6310     9.2600    -3.0330 ca         1 EBS       0.035800
     12 C12          7.8770     9.1910    -3.9680 ca         1 EBS       0.040000
     13 C13          5.6060    10.6610    -3.1610 ca         1 EBS      -0.178000
     14 C14          7.8670    10.5950    -4.1080 ca         1 EBS      -0.252500
     15 C15          6.7280    11.3250    -3.6960 ca         1 EBS       0.006000
     16 N16          4.6190     8.4520    -2.5290 na         1 EBS      -0.222100
     17 C17          4.9540     7.0930    -2.5490 cc         1 EBS       0.538200
     18 S18          6.5940     6.7990    -3.2000 ss         1 EBS      -0.016200
     19 N19          4.1630     6.1270    -2.1420 nf         1 EBS      -0.494200
     20 N20          4.5720     4.7970    -2.1920 nf         1 EBS      -0.494200
     21 C22          2.3320     9.2770    -3.1760 c3         1 EBS      -0.114100
     22 C24          5.4020     1.9080    -2.2660 c3         1 EBS       0.091100
     23 C25          5.3930     1.4350    -3.7320 c3         1 EBS      -0.114100
     24 S26         -0.7300    -0.5700     0.1470 s6         1 EBS       1.266600
     25 O39         10.1080    11.7390    -3.5730 o          1 EBS      -0.696867
     26 O45         -1.8140     0.3380    -0.2590 o          1 EBS      -0.696867
     27 O46         -0.6550    -1.8560    -0.5640 o          1 EBS      -0.696867
     28 O47         -0.4500    -0.6240     1.5900 o          1 EBS      -0.696867
     29 O48          9.9120    10.4530    -5.6950 o          1 EBS      -0.696867
     30 O49          8.7330    12.6420    -5.4420 o          1 EBS      -0.696867
     31 H3          -0.0940     2.3010    -0.2800 ha         1 EBS       0.138000
     32 H4           3.9480    -0.3290    -1.5930 ha         1 EBS       0.101000
     33 H6           1.9370    -1.5040    -0.7700 ha         1 EBS       0.129000
     34 H12          8.7450     8.6050    -4.2680 ha         1 EBS       0.138000
     35 H13          4.7410    11.2430    -2.8570 ha         1 EBS       0.101000
     36 H15          6.7090    12.4090    -3.7890 ha         1 EBS       0.129000
     37 H211         2.8950     8.3220    -1.3220 h1         1 EBS       0.057450
     38 H212         3.5390     9.9510    -1.5020 h1         1 EBS       0.057450
     39 H221         2.7350     9.9900    -3.9050 hc         1 EBS       0.041700
     40 H222         2.0930     8.3440    -3.7000 hc         1 EBS       0.041700
     41 H223         1.4020     9.6900    -2.7690 hc         1 EBS       0.041700
     42 H241         6.1790     2.6730    -2.1450 h1         1 EBS       0.057450
     43 H242         5.6750     1.0730    -1.6080 h1         1 EBS       0.057450
     44 H251         4.6430     0.6490    -3.8840 hc         1 EBS       0.041700
     45 H252         5.1620     2.2700    -4.4040 hc         1 EBS       0.041700
     46 H253         6.3740     1.0330    -4.0070 hc         1 EBS       0.041700
     47 C21          3.3420     9.0180    -2.0430 c3         1 EBS       0.091100
     48 S23          9.3410    11.4680    -4.7970 s6         1 EBS       1.266600
@<TRIPOS>BOND
     1     1     2 ar  
     2     1     3 ar  
     3     1     9 1   
     4     2     4 ar  
     5     2     7 1   
     6     3     5 ar  
     7     3    31 1   
     8     4     6 ar  
     9     4    32 1   
    10     5     6 ar  
    11     5    24 1   
    12     6    33 1   
    13     7     8 1   
    14     7    22 1   
    15     8     9 1   
    16     8    20 2   
    17    10    11 ar  
    18    10    12 ar  
    19    10    18 1   
    20    11    13 ar  
    21    11    16 1   
    22    12    14 ar  
    23    12    34 1   
    24    13    15 ar  
    25    13    35 1   
    26    14    15 ar  
    27    14    48 1   
    28    15    36 1   
    29    16    17 1   
    30    16    47 1   
    31    17    18 1   
    32    17    19 2   
    33    19    20 1   
    34    21    39 1   
    35    21    40 1   
    36    21    41 1   
    37    21    47 1   
    38    22    23 1   
    39    22    42 1   
    40    22    43 1   
    41    23    44 1   
    42    23    45 1   
    43    23    46 1   
    44    24    26 1   
    45    24    27 1   
    46    24    28 1   
    47    25    48 1   
    48    29    48 1   
    49    30    48 1   
    50    37    47 1   
    51    38    47 1   
@<TRIPOS>SUBSTRUCTURE
     1 EBS         1 TEMP              0 ****  ****    0 ROOT
