@<TRIPOS>MOLECULE
EBT
   45    45     1     0     0
SMALL
bcc


@<TRIPOS>ATOM
      1 C           -4.1580    -1.0130     0.5260 c          1 EBT       0.927600
      2 N           -1.8490    -0.3380    -0.1350 ns         1 EBT      -0.512900
      3 O           -3.9570    -2.0340    -0.1510 o          1 EBT      -0.823300
      4 CA          -3.0680     0.0910     0.5120 c3         1 EBT      -0.044300
      5 CB          -3.5950     1.3530    -0.1710 c3         1 EBT      -0.073400
      6 CG          -2.6120     2.5250    -0.2420 c3         1 EBT      -0.063700
      7 OAA          0.5360    -2.9010    -0.1870 oh         1 EBT      -0.584800
      8 OAB         -1.0420    -1.5390     1.6030 o          1 EBT      -0.626100
      9 NAF          1.1820     0.7880    -0.2010 n8         1 EBT      -0.903800
     10 CAJ          1.4420    -0.6270    -0.0340 c3         1 EBT       0.141500
     11 CAK          0.2480    -1.5430    -0.3980 c3         1 EBT       0.027100
     12 CAM         -0.9650    -1.1510     0.4410 c          1 EBT       0.632100
     13 CAP          3.9310    -0.3740    -0.3280 ca         1 EBT      -0.052300
     14 CAR          4.6400    -0.9740     0.7120 ca         1 EBT      -0.117500
     15 CAS          4.4000     0.8340    -0.8370 ca         1 EBT      -0.117500
     16 CAT          5.7860    -0.3850     1.2300 ca         1 EBT      -0.134500
     17 CAU          5.5480     1.4260    -0.3260 ca         1 EBT      -0.134500
     18 CAV          6.2450     0.8190     0.7110 ca         1 EBT      -0.141000
     19 CD1         -3.2590     3.6930    -0.9810 c3         1 EBT      -0.084600
     20 CD2         -2.1330     2.9630     1.1370 c3         1 EBT      -0.084600
     21 OXT         -5.1590    -0.7490     1.2220 o          1 EBT      -0.823300
     22 HN          -1.7720    -0.1920    -1.1290 hn         1 EBT       0.293500
     23 HA          -2.8250     0.3280     1.5500 h1         1 EBT       0.063700
     24 HB          -3.9180     1.1010    -1.1880 hc         1 EBT       0.050700
     25 HBA         -4.4930     1.6710     0.3650 hc         1 EBT       0.050700
     26 HG          -1.7360     2.2090    -0.8210 hc         1 EBT       0.025700
     27 HOAA         0.5200    -3.0530     0.7660 ho         1 EBT       0.423000
     28 HNAF         0.8870     0.9890    -1.1490 hn         1 EBT       0.348800
     29 HNAA         0.4420     1.1060     0.4110 hn         1 EBT       0.348800
     30 HAJ          1.6650    -0.7960     1.0270 h1         1 EBT       0.072700
     31 HAK          0.0330    -1.4250    -1.4670 h1         1 EBT       0.066700
     32 HAR          4.2940    -1.9170     1.1200 ha         1 EBT       0.129000
     33 HAS          3.8620     1.3150    -1.6450 ha         1 EBT       0.129000
     34 HAT          6.3240    -0.8700     2.0350 ha         1 EBT       0.120500
     35 HAU          5.8980     2.3640    -0.7380 ha         1 EBT       0.120500
     36 HAV          7.1400     1.2800     1.1100 ha         1 EBT       0.119000
     37 HD1         -4.1470     4.0420    -0.4480 hc         1 EBT       0.025700
     38 HD1A        -2.5720     4.5370    -1.0710 hc         1 EBT       0.025700
     39 HD1B        -3.5680     3.4070    -1.9880 hc         1 EBT       0.025700
     40 HD2         -1.6270     2.1600     1.6740 hc         1 EBT       0.025700
     41 HD2A        -1.4310     3.7950     1.0580 hc         1 EBT       0.025700
     42 HD2B        -2.9720     3.2950     1.7540 hc         1 EBT       0.025700
     43 CAL          2.6780    -1.0140    -0.8520 c3         1 EBT      -0.027100
     44 HAL          2.7910    -2.0990    -0.8390 hc         1 EBT       0.051200
     45 HALA         2.5130    -0.7270    -1.8960 hc         1 EBT       0.051200
@<TRIPOS>BOND
     1     1     3 1   
     2     1     4 1   
     3     1    21 1   
     4     2     4 1   
     5     2    12 1   
     6     2    22 1   
     7     4     5 1   
     8     4    23 1   
     9     5     6 1   
    10     5    24 1   
    11     5    25 1   
    12     6    19 1   
    13     6    20 1   
    14     6    26 1   
    15     7    11 1   
    16     7    27 1   
    17     8    12 2   
    18     9    10 1   
    19     9    28 1   
    20     9    29 1   
    21    10    11 1   
    22    10    30 1   
    23    10    43 1   
    24    11    12 1   
    25    11    31 1   
    26    13    14 ar  
    27    13    15 ar  
    28    13    43 1   
    29    14    16 ar  
    30    14    32 1   
    31    15    17 ar  
    32    15    33 1   
    33    16    18 ar  
    34    16    34 1   
    35    17    18 ar  
    36    17    35 1   
    37    18    36 1   
    38    19    37 1   
    39    19    38 1   
    40    19    39 1   
    41    20    40 1   
    42    20    41 1   
    43    20    42 1   
    44    43    44 1   
    45    43    45 1   
@<TRIPOS>SUBSTRUCTURE
     1 EBT         1 TEMP              0 ****  ****    0 ROOT
