@<TRIPOS>MOLECULE
EBT
   45    45     1     0     0
SMALL
No Charge or Current Charge


@<TRIPOS>ATOM
      1 C           -4.4790    -0.7370    -0.8720 c          1 EBT       0.717000
      2 N           -2.0430    -0.6640    -0.3440 ns         1 EBT      -0.445900
      3 O           -4.3230    -0.9100    -2.0740 o          1 EBT      -0.718000
      4 CA          -3.3510    -0.0180    -0.0700 c3         1 EBT      -0.044300
      5 CB          -3.3220     1.5030    -0.3900 c3         1 EBT      -0.073400
      6 CG          -2.4130     2.3760     0.5210 c3         1 EBT      -0.063700
      7 OAA          0.5220    -2.8370     0.8060 oh         1 EBT      -0.647000
      8 OAB         -1.2430    -0.7650     1.7970 o          1 EBT      -0.626100
      9 NAF          1.1630     0.5360    -0.8140 n8         1 EBT      -1.014200
     10 CAJ          1.4220    -0.6450     0.0520 c3         1 EBT       0.141500
     11 CAK          0.2120    -1.6400     0.0440 c3         1 EBT       0.050300
     12 CAM         -1.0770    -0.9640     0.5990 c          1 EBT       0.565100
     13 CAP          3.9750    -0.3750    -0.2880 ca         1 EBT      -0.052300
     14 CAR          4.4400     0.0890     0.9600 ca         1 EBT      -0.099500
     15 CAS          4.6500     0.0160    -1.4620 ca         1 EBT      -0.099500
     16 CAT          5.5580     0.9380     1.0320 ca         1 EBT      -0.116500
     17 CAU          5.7680     0.8650    -1.3900 ca         1 EBT      -0.116500
     18 CAV          6.2220     1.3270    -0.1430 ca         1 EBT      -0.123000
     19 CD1         -2.2820     3.8100    -0.0420 c3         1 EBT      -0.084600
     20 CD2         -2.8980     2.4130     1.9910 c3         1 EBT      -0.084600
     21 OXT         -5.4390    -1.1750    -0.2520 o          1 EBT      -0.718000
     22 HN          -1.8390    -0.9200    -1.3040 hn         1 EBT       0.293500
     23 HA          -3.5970    -0.1550     0.9890 h1         1 EBT       0.063700
     24 HB          -3.0110     1.6290    -1.4340 hc         1 EBT       0.050700
     25 HBA         -4.3470     1.8920    -0.3300 hc         1 EBT       0.050700
     26 HG          -1.4060     1.9420     0.5170 hc         1 EBT       0.025700
     27 HOAA         0.3020    -2.6410     1.7470 ho         1 EBT       0.462000
     28 HNAF         1.0360     0.2330    -1.7870 hn         1 EBT       0.404000
     29 HNAA         0.2680     0.9720    -0.5640 hn         1 EBT       0.404000
     30 HAJ          1.5360    -0.2760     1.0830 h1         1 EBT       0.072700
     31 HAK          0.0150    -1.9230    -0.9990 h1         1 EBT       0.066700
     32 HAR          3.9350    -0.2110     1.8750 ha         1 EBT       0.111000
     33 HAS          4.3070    -0.3360    -2.4320 ha         1 EBT       0.111000
     34 HAT          5.9100     1.2920     1.9980 ha         1 EBT       0.102500
     35 HAU          6.2820     1.1650    -2.3010 ha         1 EBT       0.102500
     36 HAV          7.0880     1.9840    -0.0880 ha         1 EBT       0.101000
     37 HD1         -3.2570     4.3110    -0.0670 hc         1 EBT       0.025700
     38 HD1A        -1.6040     4.4100     0.5770 hc         1 EBT       0.025700
     39 HD1B        -1.8780     3.7920    -1.0610 hc         1 EBT       0.025700
     40 HD2         -2.8990     1.4140     2.4380 hc         1 EBT       0.025700
     41 HD2A        -2.2400     3.0460     2.5980 hc         1 EBT       0.025700
     42 HD2B        -3.9150     2.8190     2.0550 hc         1 EBT       0.025700
     43 CAL          2.7690    -1.3120    -0.3590 c3         1 EBT      -0.027100
     44 HAL          2.9650    -2.1680     0.2970 hc         1 EBT       0.051200
     45 HALA         2.6670    -1.7290    -1.3680 hc         1 EBT       0.051200
@<TRIPOS>BOND
     1     1     3 1   
     2     1     4 1   
     3     1    21 1   
     4     2     4 1   
     5     2    12 1   
     6     2    22 1   
     7     4     5 1   
     8     4    23 1   
     9     5     6 1   
    10     5    24 1   
    11     5    25 1   
    12     6    19 1   
    13     6    20 1   
    14     6    26 1   
    15     7    11 1   
    16     7    27 1   
    17     8    12 2   
    18     9    10 1   
    19     9    28 1   
    20     9    29 1   
    21    10    11 1   
    22    10    30 1   
    23    10    43 1   
    24    11    12 1   
    25    11    31 1   
    26    13    14 ar  
    27    13    15 ar  
    28    13    43 1   
    29    14    16 ar  
    30    14    32 1   
    31    15    17 ar  
    32    15    33 1   
    33    16    18 ar  
    34    16    34 1   
    35    17    18 ar  
    36    17    35 1   
    37    18    36 1   
    38    19    37 1   
    39    19    38 1   
    40    19    39 1   
    41    20    40 1   
    42    20    41 1   
    43    20    42 1   
    44    43    44 1   
    45    43    45 1   
@<TRIPOS>SUBSTRUCTURE
     1 EBT         1 TEMP              0 ****  ****    0 ROOT
