@<TRIPOS>MOLECULE
EBV
   61    66     1     0     0
SMALL
No Charge or Current Charge


@<TRIPOS>ATOM
      1 N1           5.8880    -2.3790     1.1750 na         1 EBV      -0.221700
      2 N3          -2.2610    -0.7470    -0.2640 n3         1 EBV      -0.741600
      3 C4           6.7530    -1.3040     1.2590 ca         1 EBV      -0.046200
      4 C5           8.1050    -1.3190     1.6300 ca         1 EBV      -0.128000
      5 C6           8.8020    -0.0930     1.6570 ca         1 EBV      -0.089000
      6 C7           8.1390     1.1110     1.3200 ca         1 EBV      -0.136000
      7 C8           6.7770     1.0960     0.9510 ca         1 EBV      -0.067000
      8 C10          2.3210     1.4990    -1.7960 c          1 EBV       0.609100
      9 C13         -1.6000     0.5760    -0.3110 c5         1 EBV       0.176800
     10 C15         -3.6740    -0.2640     1.7310 cc         1 EBV      -0.143400
     11 C17         -5.4800     1.0520     2.1170 ca         1 EBV      -0.051200
     12 C20         -6.7620     0.5850    -0.3110 ca         1 EBV       0.086000
     13 C21         -5.5280    -0.0420    -0.0420 ca         1 EBV      -0.039000
     14 C22         -4.9160     0.2180     1.1930 ca         1 EBV      -0.081800
     15 C24         -0.6690    -0.7610    -2.0740 c5         1 EBV      -0.088700
     16 N            4.9050     1.1110    -1.9390 n8         1 EBV      -0.987200
     17 C            3.5860     0.6420    -1.3920 c3         1 EBV       0.096500
     18 C11         -0.1830     1.6450    -2.1190 c5         1 EBV       0.108500
     19 C12         -1.3140     0.6240    -1.8320 c5         1 EBV      -0.088700
     20 C14         -2.7070    -1.2130     1.0660 c3         1 EBV       0.260000
     21 C16         -3.5540     0.3250     2.9880 cd         1 EBV      -0.156100
     22 C18         -6.7060     1.6880     1.8780 ca         1 EBV      -0.124000
     23 C19         -7.3510     1.4460     0.6450 ca         1 EBV      -0.083000
     24 C2           4.7540    -0.4670     0.6010 cc         1 EBV      -0.149400
     25 C23         -1.3620    -1.6760    -1.0040 c5         1 EBV       0.176800
     26 C25          0.8260    -0.5740    -1.6540 c5         1 EBV       0.108500
     27 C3           4.6410    -1.8440     0.7670 cd         1 EBV      -0.157100
     28 C9           6.1160    -0.1420     0.9270 ca         1 EBV      -0.099800
     29 N2           1.0500     0.8800    -1.8360 n          1 EBV      -0.416800
     30 N4          -4.6800     1.1480     3.2400 na         1 EBV      -0.219700
     31 Cl          -7.5740     0.2960    -1.8450 cl         1 EBV      -0.218000
     32 H1           6.1030    -3.3530     1.3690 hn         1 EBV       0.351000
     33 H3           8.6040    -2.2490     1.8930 ha         1 EBV       0.114000
     34 H4           9.8510    -0.0720     1.9420 ha         1 EBV       0.112000
     35 H5           8.6810     2.0540     1.3480 ha         1 EBV       0.114000
     36 H6           6.2600     2.0180     0.6970 ha         1 EBV       0.115000
     37 H7          -2.2620     1.3930     0.0090 h1         1 EBV       0.041450
     38 H8          -0.6900     0.6030     0.3050 h1         1 EBV       0.041450
     39 H9          -5.0640    -0.7010    -0.7710 ha         1 EBV       0.145000
     40 H10         -0.7800    -1.1130    -3.1060 hc         1 EBV       0.077200
     41 H11          5.0240     2.1030    -1.7020 hn         1 EBV       0.411000
     42 H12          5.6470     0.6450    -1.4030 hn         1 EBV       0.411000
     43 H14          3.4320    -0.3630    -1.8040 h1         1 EBV       0.065700
     44 H15          3.8270     1.4700     0.6050 hc         1 EBV       0.055200
     45 H16          2.7080     0.1320     0.5340 hc         1 EBV       0.055200
     46 H17         -0.1970     1.9600    -3.1710 h1         1 EBV       0.051200
     47 H18         -0.2690     2.5440    -1.4940 h1         1 EBV       0.051200
     48 H19         -2.2230     0.7970    -2.4200 hc         1 EBV       0.077200
     49 H20         -3.1980    -2.1910     0.9690 h1         1 EBV       0.032700
     50 H21         -1.8380    -1.3500     1.7240 h1         1 EBV       0.032700
     51 H22         -2.7540     0.2160     3.7160 h4         1 EBV       0.212000
     52 H23         -7.1490     2.3500     2.6180 ha         1 EBV       0.117000
     53 H24         -8.3030     1.9240     0.4270 ha         1 EBV       0.126000
     54 H25         -0.6360    -2.1600    -0.3360 h1         1 EBV       0.041450
     55 H26         -1.9420    -2.4780    -1.4820 h1         1 EBV       0.041450
     56 H27          1.0100    -0.8540    -0.6090 h1         1 EBV       0.051200
     57 H28          1.4850    -1.1780    -2.2910 h1         1 EBV       0.051200
     58 H29          3.7720    -2.4790     0.6180 h4         1 EBV       0.209000
     59 H30         -4.8620     1.6990     4.0750 hn         1 EBV       0.353000
     60 C1           3.6720     0.4840     0.1500 c3         1 EBV      -0.042200
     61 O            2.4260     2.6950    -2.0590 o          1 EBV      -0.603100
@<TRIPOS>BOND
     1     1     3 1   
     2     1    27 1   
     3     1    32 1   
     4     2     9 1   
     5     2    20 1   
     6     2    25 1   
     7     3     4 ar  
     8     3    28 ar  
     9     4     5 ar  
    10     4    33 1   
    11     5     6 ar  
    12     5    34 1   
    13     6     7 ar  
    14     6    35 1   
    15     7    28 ar  
    16     7    36 1   
    17     8    17 1   
    18     8    29 1   
    19     8    61 2   
    20     9    19 1   
    21     9    37 1   
    22     9    38 1   
    23    10    14 1   
    24    10    20 1   
    25    10    21 2   
    26    11    14 ar  
    27    11    22 ar  
    28    11    30 1   
    29    12    13 ar  
    30    12    23 ar  
    31    12    31 1   
    32    13    14 ar  
    33    13    39 1   
    34    15    19 1   
    35    15    25 1   
    36    15    26 1   
    37    15    40 1   
    38    16    17 1   
    39    16    41 1   
    40    16    42 1   
    41    17    43 1   
    42    17    60 1   
    43    18    19 1   
    44    18    29 1   
    45    18    46 1   
    46    18    47 1   
    47    19    48 1   
    48    20    49 1   
    49    20    50 1   
    50    21    30 1   
    51    21    51 1   
    52    22    23 ar  
    53    22    52 1   
    54    23    53 1   
    55    24    27 2   
    56    24    28 1   
    57    24    60 1   
    58    25    54 1   
    59    25    55 1   
    60    26    29 1   
    61    26    56 1   
    62    26    57 1   
    63    27    58 1   
    64    30    59 1   
    65    44    60 1   
    66    45    60 1   
@<TRIPOS>SUBSTRUCTURE
     1 EBV         1 TEMP              0 ****  ****    0 ROOT
