@<TRIPOS>MOLECULE
EBV
   61    66     1     0     0
SMALL
abcg2


@<TRIPOS>ATOM
      1 N1           5.8690    -2.2380     1.3290 na         1 EBV      -0.221700
      2 N3          -2.3130    -0.7340    -0.2650 n3         1 EBV      -0.741600
      3 C4           6.7920    -1.2350     1.2960 ca         1 EBV      -0.046200
      4 C5           8.1530    -1.2500     1.5960 ca         1 EBV      -0.128000
      5 C6           8.8460    -0.0610     1.4760 ca         1 EBV      -0.089000
      6 C7           8.2010     1.1200     1.0690 ca         1 EBV      -0.136000
      7 C8           6.8530     1.1290     0.7710 ca         1 EBV      -0.067000
      8 C10          2.3670     1.3930    -1.7300 c          1 EBV       0.609100
      9 C13         -1.7160     0.5850    -0.2910 c5         1 EBV       0.176800
     10 C15         -3.7200    -0.3310     1.6830 cc         1 EBV      -0.143400
     11 C17         -5.5570     0.9690     2.0980 ca         1 EBV      -0.051200
     12 C20         -6.6820     0.7570    -0.3890 ca         1 EBV       0.086000
     13 C21         -5.4920     0.0980    -0.1690 ca         1 EBV      -0.039000
     14 C22         -4.9170     0.1970     1.1020 ca         1 EBV      -0.081800
     15 C24         -0.6190    -0.7380    -1.9290 c5         1 EBV      -0.088700
     16 N            4.7370     1.0220    -2.0300 n8         1 EBV      -0.987200
     17 C            3.5570     0.5190    -1.3600 c3         1 EBV       0.096500
     18 C11         -0.0430     1.6300    -1.9550 c5         1 EBV       0.108500
     19 C12         -1.1950     0.6690    -1.7190 c5         1 EBV      -0.088700
     20 C14         -2.7200    -1.2250     1.0300 c3         1 EBV       0.260000
     21 C16         -3.6850     0.1380     2.9660 cd         1 EBV      -0.156100
     22 C18         -6.7590     1.6310     1.8580 ca         1 EBV      -0.124000
     23 C19         -7.3200     1.5170     0.6020 ca         1 EBV      -0.083000
     24 C2           4.7480    -0.4100     0.6700 cc         1 EBV      -0.149400
     25 C23         -1.4310    -1.6410    -0.9920 c5         1 EBV       0.176800
     26 C25          0.8530    -0.5880    -1.5280 c5         1 EBV       0.108500
     27 C3           4.6510    -1.7440     0.9570 cd         1 EBV      -0.157100
     28 C9           6.1230    -0.0610     0.8810 ca         1 EBV      -0.099800
     29 N2           1.1530     0.8230    -1.7370 n          1 EBV      -0.416800
     30 N4          -4.7850     0.9090     3.2190 na         1 EBV      -0.219700
     31 CL          -7.4290     0.6580    -1.9600 cl         1 EBV      -0.218000
     32 H1           6.0470    -3.1910     1.5970 hn         1 EBV       0.351000
     33 H3           8.6500    -2.1600     1.9100 ha         1 EBV       0.114000
     34 H4           9.9050    -0.0370     1.6980 ha         1 EBV       0.112000
     35 H5           8.7760     2.0340     0.9880 ha         1 EBV       0.114000
     36 H6           6.3720     2.0470     0.4540 ha         1 EBV       0.115000
     37 H7          -2.4560     1.3550    -0.0680 h1         1 EBV       0.041450
     38 H8          -0.8930     0.7040     0.4390 h1         1 EBV       0.041450
     39 H9          -5.0030    -0.4670    -0.9510 ha         1 EBV       0.145000
     40 H10         -0.6880    -1.0560    -2.9700 hc         1 EBV       0.077200
     41 H11          4.9330     1.9670    -1.7250 hn         1 EBV       0.411000
     42 H12          5.5370     0.4590    -1.7670 hn         1 EBV       0.411000
     43 H14          3.3990    -0.5040    -1.7090 h1         1 EBV       0.065700
     44 H15          3.7860     1.4950     0.5540 hc         1 EBV       0.055200
     45 H16          2.6950     0.1280     0.5990 hc         1 EBV       0.055200
     46 H17         -0.0560     2.0250    -2.9740 h1         1 EBV       0.051200
     47 H18         -0.0670     2.4840    -1.2750 h1         1 EBV       0.051200
     48 H19         -2.0240     0.8750    -2.3980 hc         1 EBV       0.077200
     49 H20         -3.1510    -2.2220     0.8840 h1         1 EBV       0.032700
     50 H21         -1.8610    -1.3600     1.7100 h1         1 EBV       0.032700
     51 H22         -2.9440    -0.0250     3.7330 h4         1 EBV       0.212000
     52 H23         -7.2430     2.2230     2.6240 ha         1 EBV       0.117000
     53 H24         -8.2520     2.0180     0.3810 ha         1 EBV       0.126000
     54 H25         -0.7590    -2.1920    -0.3170 h1         1 EBV       0.041450
     55 H26         -2.0160    -2.3880    -1.5340 h1         1 EBV       0.041450
     56 H27          1.0000    -0.8690    -0.4800 h1         1 EBV       0.051200
     57 H28          1.4970    -1.2290    -2.1290 h1         1 EBV       0.051200
     58 H29          3.7860    -2.3890     0.9280 h4         1 EBV       0.209000
     59 H30         -4.9760     1.3720     4.0900 hn         1 EBV       0.353000
     60 C1           3.6470     0.4730     0.1860 c3         1 EBV      -0.042200
     61 O            2.5170     2.5910    -1.9500 o          1 EBV      -0.603100
@<TRIPOS>BOND
     1     1     3 1   
     2     1    27 1   
     3     1    32 1   
     4     2     9 1   
     5     2    20 1   
     6     2    25 1   
     7     3     4 ar  
     8     3    28 ar  
     9     4     5 ar  
    10     4    33 1   
    11     5     6 ar  
    12     5    34 1   
    13     6     7 ar  
    14     6    35 1   
    15     7    28 ar  
    16     7    36 1   
    17     8    17 1   
    18     8    29 1   
    19     8    61 2   
    20     9    19 1   
    21     9    37 1   
    22     9    38 1   
    23    10    14 1   
    24    10    20 1   
    25    10    21 2   
    26    11    14 ar  
    27    11    22 ar  
    28    11    30 1   
    29    12    13 ar  
    30    12    23 ar  
    31    12    31 1   
    32    13    14 ar  
    33    13    39 1   
    34    15    19 1   
    35    15    25 1   
    36    15    26 1   
    37    15    40 1   
    38    16    17 1   
    39    16    41 1   
    40    16    42 1   
    41    17    43 1   
    42    17    60 1   
    43    18    19 1   
    44    18    29 1   
    45    18    46 1   
    46    18    47 1   
    47    19    48 1   
    48    20    49 1   
    49    20    50 1   
    50    21    30 1   
    51    21    51 1   
    52    22    23 ar  
    53    22    52 1   
    54    23    53 1   
    55    24    27 2   
    56    24    28 1   
    57    24    60 1   
    58    25    54 1   
    59    25    55 1   
    60    26    29 1   
    61    26    56 1   
    62    26    57 1   
    63    27    58 1   
    64    30    59 1   
    65    44    60 1   
    66    45    60 1   
@<TRIPOS>SUBSTRUCTURE
     1 EBV         1 TEMP              0 ****  ****    0 ROOT
