@<TRIPOS>MOLECULE
EBW
   68    69     1     0     0
SMALL
No Charge or Current Charge


@<TRIPOS>ATOM
      1 C1          -0.0080    -2.9350     0.0040 c          1 EBW       0.569100
      2 C2          -1.2730    -2.1340     0.3370 c3         1 EBW      -0.180900
      3 C5           1.2560    -2.1310    -0.3270 c3         1 EBW      -0.180900
      4 C6          -2.1680    -1.9520    -0.9100 c3         1 EBW      -0.033100
      5 C7          -3.4200    -1.1430    -0.5970 ca         1 EBW      -0.029800
      6 C8          -3.4160     0.2550    -0.7390 ca         1 EBW      -0.086750
      7 C9          -4.5700     1.0010    -0.4430 ca         1 EBW      -0.088500
      8 C10         -5.7480     0.3660     0.0020 ca         1 EBW       0.115000
      9 C11         -5.7440    -1.0410     0.1450 ca         1 EBW      -0.088500
     10 N1           6.9570     1.2390    -0.2910 n4         1 EBW      -0.542000
     11 N2          -6.9750     1.2340     0.3100 n4         1 EBW      -0.542000
     12 C12         -4.5890    -1.7850    -0.1520 ca         1 EBW      -0.086750
     13 C13          2.1510    -1.9520     0.9220 c3         1 EBW      -0.033100
     14 C14          3.4020    -1.1410     0.6100 ca         1 EBW      -0.029800
     15 C15          3.3980     0.2570     0.7550 ca         1 EBW      -0.086750
     16 C16          4.5520     1.0030     0.4610 ca         1 EBW      -0.088500
     17 C17          5.7300     0.3700     0.0150 ca         1 EBW       0.115000
     18 C18          5.7270    -1.0370    -0.1320 ca         1 EBW      -0.088500
     19 C19          4.5710    -1.7820     0.1640 ca         1 EBW      -0.086750
     20 C20          7.3850     1.9870     0.9830 c3         1 EBW       0.084150
     21 C21          6.6120     2.2380    -1.4090 c3         1 EBW       0.084150
     22 C22          8.1540     0.4000    -0.7680 c3         1 EBW       0.147800
     23 C23          9.4030     1.1950    -1.0900 c2         1 EBW      -0.315700
     24 C24         -8.1720     0.3940     0.7850 c3         1 EBW       0.147800
     25 C25         -6.6300     2.2320     1.4290 c3         1 EBW       0.084150
     26 C26         -7.4040     1.9840    -0.9630 c3         1 EBW       0.084150
     27 C27         -9.4210     1.1880     1.1100 c2         1 EBW      -0.315700
     28 C28        -10.4440     1.4080     0.2660 c2         1 EBW      -0.206500
     29 C29         10.4250     1.4130    -0.2450 c2         1 EBW      -0.206500
     30 O1          -0.0070    -4.1590     0.0020 o          1 EBW      -0.489100
     31 H22         -0.9910    -1.1340     0.6880 hc         1 EBW       0.064200
     32 H21         -1.8440    -2.6630     1.1100 hc         1 EBW       0.064200
     33 H52          1.8280    -2.6570    -1.1010 hc         1 EBW       0.064200
     34 H51          0.9720    -1.1310    -0.6740 hc         1 EBW       0.064200
     35 H62         -2.4480    -2.9380    -1.3050 hc         1 EBW       0.081700
     36 H61         -1.5930    -1.4610    -1.7060 hc         1 EBW       0.081700
     37 H8          -2.5180     0.7680    -1.0780 ha         1 EBW       0.144000
     38 H9          -4.5450     2.0810    -0.5610 ha         1 EBW       0.134250
     39 H11         -6.6220    -1.5810     0.4850 ha         1 EBW       0.134250
     40 H12         -4.6030    -2.8660    -0.0320 ha         1 EBW       0.144000
     41 H132         1.5750    -1.4630     1.7180 hc         1 EBW       0.081700
     42 H131         2.4310    -2.9380     1.3140 hc         1 EBW       0.081700
     43 H15          2.5000     0.7680     1.0950 ha         1 EBW       0.144000
     44 H16          4.5260     2.0830     0.5800 ha         1 EBW       0.134250
     45 H18          6.6050    -1.5760    -0.4720 ha         1 EBW       0.134250
     46 H19          4.5870    -2.8630     0.0420 ha         1 EBW       0.144000
     47 H203         8.2540     2.6090     0.7620 hx         1 EBW       0.094533
     48 H202         7.6400     1.2590     1.7560 hx         1 EBW       0.094533
     49 H201         6.5630     2.6160     1.3300 hx         1 EBW       0.094533
     50 H213         5.7790     2.8680    -1.0900 hx         1 EBW       0.094533
     51 H212         6.3310     1.6870    -2.3080 hx         1 EBW       0.094533
     52 H211         7.4820     2.8640    -1.6160 hx         1 EBW       0.094533
     53 H222         7.8360    -0.1530    -1.6550 hx         1 EBW       0.094700
     54 H221         8.3780    -0.3290     0.0150 hx         1 EBW       0.094700
     55 H23          9.4330     1.5890    -2.1090 ha         1 EBW       0.201000
     56 H242        -7.8530    -0.1610     1.6720 hx         1 EBW       0.094700
     57 H241        -8.3960    -0.3340     0.0010 hx         1 EBW       0.094700
     58 H253        -6.3480     1.6790     2.3280 hx         1 EBW       0.094533
     59 H252        -7.5000     2.8570     1.6380 hx         1 EBW       0.094533
     60 H251        -5.7970     2.8620     1.1110 hx         1 EBW       0.094533
     61 H263        -6.5830     2.6150    -1.3090 hx         1 EBW       0.094533
     62 H262        -8.2730     2.6060    -0.7400 hx         1 EBW       0.094533
     63 H261        -7.6590     1.2580    -1.7370 hx         1 EBW       0.094533
     64 H27         -9.4500     1.5790     2.1290 ha         1 EBW       0.201000
     65 H282       -11.3210     1.9840     0.5640 ha         1 EBW       0.191500
     66 H281       -10.4460     1.0200    -0.7550 ha         1 EBW       0.191500
     67 H292        11.3030     1.9900    -0.5420 ha         1 EBW       0.191500
     68 H291        10.4270     1.0230     0.7750 ha         1 EBW       0.191500
@<TRIPOS>BOND
     1     1     2 1   
     2     1     3 1   
     3     1    30 2   
     4     2     4 1   
     5     2    31 1   
     6     2    32 1   
     7     3    13 1   
     8     3    33 1   
     9     3    34 1   
    10     4     5 1   
    11     4    35 1   
    12     4    36 1   
    13     5     6 ar  
    14     5    12 ar  
    15     6     7 ar  
    16     6    37 1   
    17     7     8 ar  
    18     7    38 1   
    19     8     9 ar  
    20     8    11 1   
    21     9    12 ar  
    22     9    39 1   
    23    10    17 1   
    24    10    20 1   
    25    10    21 1   
    26    10    22 1   
    27    11    24 1   
    28    11    25 1   
    29    11    26 1   
    30    12    40 1   
    31    13    14 1   
    32    13    41 1   
    33    13    42 1   
    34    14    15 ar  
    35    14    19 ar  
    36    15    16 ar  
    37    15    43 1   
    38    16    17 ar  
    39    16    44 1   
    40    17    18 ar  
    41    18    19 ar  
    42    18    45 1   
    43    19    46 1   
    44    20    47 1   
    45    20    48 1   
    46    20    49 1   
    47    21    50 1   
    48    21    51 1   
    49    21    52 1   
    50    22    23 1   
    51    22    53 1   
    52    22    54 1   
    53    23    29 2   
    54    23    55 1   
    55    24    27 1   
    56    24    56 1   
    57    24    57 1   
    58    25    58 1   
    59    25    59 1   
    60    25    60 1   
    61    26    61 1   
    62    26    62 1   
    63    26    63 1   
    64    27    28 2   
    65    27    64 1   
    66    28    65 1   
    67    28    66 1   
    68    29    67 1   
    69    29    68 1   
@<TRIPOS>SUBSTRUCTURE
     1 EBW         1 TEMP              0 ****  ****    0 ROOT
