@<TRIPOS>MOLECULE
EBW
   68    69     1     0     0
SMALL
abcg2


@<TRIPOS>ATOM
      1 C1          -0.0060    -2.4800     0.0040 c          1 EBW       0.569100
      2 C2          -1.2770    -1.6690    -0.0470 c3         1 EBW      -0.180900
      3 C5           1.2680    -1.6740     0.0610 c3         1 EBW      -0.180900
      4 C6          -2.5550    -2.4980    -0.1360 c3         1 EBW      -0.033100
      5 C7          -3.7560    -1.5980    -0.1850 ca         1 EBW      -0.029800
      6 C8          -4.2470    -1.1220    -1.3980 ca         1 EBW      -0.086750
      7 C9          -5.3170    -0.2480    -1.4480 ca         1 EBW      -0.088500
      8 C10         -5.9230     0.1730    -0.2690 ca         1 EBW       0.115000
      9 C11         -5.4600    -0.2970     0.9480 ca         1 EBW      -0.088500
     10 N1           7.0410     1.1260     0.3870 n4         1 EBW      -0.542000
     11 N2          -7.0600     1.1290    -0.3690 n4         1 EBW      -0.542000
     12 C12         -4.3840    -1.1750     0.9780 ca         1 EBW      -0.086750
     13 C13          2.5420    -2.5080     0.1470 c3         1 EBW      -0.033100
     14 C14          3.7460    -1.6110     0.1990 ca         1 EBW      -0.029800
     15 C15          4.2320    -1.1330     1.4130 ca         1 EBW      -0.086750
     16 C16          5.3020    -0.2580     1.4640 ca         1 EBW      -0.088500
     17 C17          5.9080     0.1650     0.2870 ca         1 EBW       0.115000
     18 C18          5.4520    -0.3110    -0.9310 ca         1 EBW      -0.088500
     19 C19          4.3780    -1.1910    -0.9630 ca         1 EBW      -0.086750
     20 C20          8.1490     0.4950     1.1710 c3         1 EBW       0.084150
     21 C21          6.5670     2.3640     1.0820 c3         1 EBW       0.084150
     22 C22          7.5700     1.5100    -0.9830 c3         1 EBW       0.147800
     23 C23          8.6670     2.5230    -0.9440 c2         1 EBW      -0.315700
     24 C24         -7.6000     1.4990     1.0010 c3         1 EBW       0.147800
     25 C25         -6.5870     2.3750    -1.0510 c3         1 EBW       0.084150
     26 C26         -8.1610     0.5000    -1.1640 c3         1 EBW       0.084150
     27 C27         -8.7030     2.5050     0.9640 c2         1 EBW      -0.315700
     28 C28         -9.9540     2.2020     1.2880 c2         1 EBW      -0.206500
     29 C29          9.9190     2.2300    -1.2700 c2         1 EBW      -0.206500
     30 O1          -0.0090    -3.6890    -0.0020 o          1 EBW      -0.489100
     31 H22         -1.2040    -0.9800    -0.8960 hc         1 EBW       0.064200
     32 H21         -1.3000    -1.0240     0.8390 hc         1 EBW       0.064200
     33 H52          1.2940    -1.0260    -0.8220 hc         1 EBW       0.064200
     34 H51          1.1970    -0.9890     0.9130 hc         1 EBW       0.064200
     35 H62         -2.6260    -3.1630     0.7250 hc         1 EBW       0.081700
     36 H61         -2.5280    -3.1280    -1.0270 hc         1 EBW       0.081700
     37 H8          -3.7890    -1.4360    -2.3280 ha         1 EBW       0.144000
     38 H9          -5.6590     0.0870    -2.4170 ha         1 EBW       0.134250
     39 H11         -5.9010    -0.0120     1.8900 ha         1 EBW       0.134250
     40 H12         -4.0350    -1.5300     1.9400 ha         1 EBW       0.144000
     41 H132         2.5140    -3.1420     1.0350 hc         1 EBW       0.081700
     42 H131         2.6110    -3.1700    -0.7180 hc         1 EBW       0.081700
     43 H15          3.7720    -1.4460     2.3420 ha         1 EBW       0.144000
     44 H16          5.6400     0.0790     2.4350 ha         1 EBW       0.134250
     45 H18          5.8970    -0.0260    -1.8710 ha         1 EBW       0.134250
     46 H19          4.0330    -1.5480    -1.9250 ha         1 EBW       0.144000
     47 H203         8.9770     1.1940     1.2420 hx         1 EBW       0.094533
     48 H202         8.4660    -0.4080     0.6570 hx         1 EBW       0.094533
     49 H201         7.7960     0.2510     2.1670 hx         1 EBW       0.094533
     50 H213         6.1770     2.1100     2.0610 hx         1 EBW       0.094533
     51 H212         5.7870     2.8240     0.4820 hx         1 EBW       0.094533
     52 H211         7.4000     3.0490     1.2070 hx         1 EBW       0.094533
     53 H222         6.7220     1.9040    -1.5430 hx         1 EBW       0.094700
     54 H221         7.9150     0.5920    -1.4570 hx         1 EBW       0.094700
     55 H23          8.3960     3.5460    -0.7100 ha         1 EBW       0.201000
     56 H242        -6.7580     1.8970     1.5680 hx         1 EBW       0.094700
     57 H241        -7.9400     0.5760     1.4670 hx         1 EBW       0.094700
     58 H253        -5.8170     2.8370    -0.4380 hx         1 EBW       0.094533
     59 H252        -7.4230     3.0540    -1.1820 hx         1 EBW       0.094533
     60 H251        -6.1830     2.1280    -2.0260 hx         1 EBW       0.094533
     61 H263        -7.8030     0.2660    -2.1610 hx         1 EBW       0.094533
     62 H262        -8.9910     1.1960    -1.2340 hx         1 EBW       0.094533
     63 H261        -8.4780    -0.4080    -0.6590 hx         1 EBW       0.094533
     64 H27         -8.4390     3.5300     0.7330 ha         1 EBW       0.201000
     65 H282       -10.7250     2.9590     1.3120 ha         1 EBW       0.191500
     66 H281       -10.2510     1.1930     1.5460 ha         1 EBW       0.191500
     67 H292        10.6860     2.9920    -1.2920 ha         1 EBW       0.191500
     68 H291        10.2230     1.2230    -1.5320 ha         1 EBW       0.191500
@<TRIPOS>BOND
     1     1     2 1   
     2     1     3 1   
     3     1    30 2   
     4     2     4 1   
     5     2    31 1   
     6     2    32 1   
     7     3    13 1   
     8     3    33 1   
     9     3    34 1   
    10     4     5 1   
    11     4    35 1   
    12     4    36 1   
    13     5     6 ar  
    14     5    12 ar  
    15     6     7 ar  
    16     6    37 1   
    17     7     8 ar  
    18     7    38 1   
    19     8     9 ar  
    20     8    11 1   
    21     9    12 ar  
    22     9    39 1   
    23    10    17 1   
    24    10    20 1   
    25    10    21 1   
    26    10    22 1   
    27    11    24 1   
    28    11    25 1   
    29    11    26 1   
    30    12    40 1   
    31    13    14 1   
    32    13    41 1   
    33    13    42 1   
    34    14    15 ar  
    35    14    19 ar  
    36    15    16 ar  
    37    15    43 1   
    38    16    17 ar  
    39    16    44 1   
    40    17    18 ar  
    41    18    19 ar  
    42    18    45 1   
    43    19    46 1   
    44    20    47 1   
    45    20    48 1   
    46    20    49 1   
    47    21    50 1   
    48    21    51 1   
    49    21    52 1   
    50    22    23 1   
    51    22    53 1   
    52    22    54 1   
    53    23    29 2   
    54    23    55 1   
    55    24    27 1   
    56    24    56 1   
    57    24    57 1   
    58    25    58 1   
    59    25    59 1   
    60    25    60 1   
    61    26    61 1   
    62    26    62 1   
    63    26    63 1   
    64    27    28 2   
    65    27    64 1   
    66    28    65 1   
    67    28    66 1   
    68    29    67 1   
    69    29    68 1   
@<TRIPOS>SUBSTRUCTURE
     1 EBW         1 TEMP              0 ****  ****    0 ROOT
