@<TRIPOS>MOLECULE
EBX
   57    59     1     0     0
SMALL
No Charge or Current Charge


@<TRIPOS>ATOM
      1 C1          46.6990   -28.5990   189.2370 ca         1 EBX       0.250500
      2 C2          47.5580   -29.3920   188.4200 ca         1 EBX       0.045100
      3 C3          48.9490   -29.3570   188.6800 ca         1 EBX       0.317000
      4 C4          49.4220   -28.5730   189.7370 ca         1 EBX      -0.176000
      5 C5          48.5160   -27.8130   190.4810 ca         1 EBX       0.338900
      6 C6          45.1840   -28.5890   189.0080 c          1 EBX       0.502600
      7 C7          45.0060   -31.0420   189.5740 c3         1 EBX       0.081300
      8 C8          43.0950   -29.8610   188.4490 c3         1 EBX       0.081300
      9 C11         53.2360   -30.2010   187.2520 c          1 EBX       0.482300
     10 C10         52.0250   -31.0390   187.0180 cc         1 EBX       0.015800
     11 C12         52.3060   -29.2020   187.9790 c          1 EBX       0.499300
     12 C13         52.9540   -33.0670   185.7730 c3         1 EBX       0.211200
     13 C14         53.8510   -33.6320   186.8560 cc         1 EBX       0.097300
     14 C15         52.3650   -34.1840   184.8800 c3         1 EBX      -0.083400
     15 C16         51.6350   -33.6680   183.6190 c3         1 EBX      -0.090100
     16 C17         55.7330   -34.4110   187.7140 cc         1 EBX       0.134900
     17 C18         54.8130   -34.4090   188.7320 cd         1 EBX      -0.142300
     18 C19         53.6150   -33.9120   188.1750 cd         1 EBX      -0.164000
     19 C20         55.0290   -34.8430   190.1610 c3         1 EBX       0.009600
     20 C21         54.1350   -36.0480   190.5210 c3         1 EBX      -0.083600
     21 C22         54.8270   -33.6670   191.1390 c3         1 EBX      -0.083600
     22 C9          51.1890   -30.1530   187.6770 cd         1 EBX      -0.046200
     23 N1          47.1880   -27.8140   190.2410 nb         1 EBX      -0.629000
     24 N2          44.5170   -29.8340   188.8610 n          1 EBX      -0.427800
     25 N3          49.8110   -30.1330   187.8880 nu         1 EBX      -0.789000
     26 O1          47.0850   -30.1560   187.3610 oh         1 EBX      -0.562100
     27 O2          44.5620   -27.5370   188.8850 o          1 EBX      -0.555100
     28 O3          52.4440   -28.0990   188.5110 o          1 EBX      -0.488100
     29 O4          54.4370   -30.2500   186.9830 o          1 EBX      -0.471100
     30 O5          55.1580   -33.9370   186.5550 os         1 EBX      -0.250000
     31 H1          50.4700   -28.5510   190.0000 ha         1 EBX       0.162000
     32 H2          48.8610   -27.1880   191.3040 h4         1 EBX       0.033100
     33 H4          44.1710   -31.5380   190.0860 h1         1 EBX       0.046700
     34 H5          45.4460   -31.7490   188.8590 h1         1 EBX       0.046700
     35 H6          45.7570   -30.7760   190.3280 h1         1 EBX       0.046700
     36 H7          42.7920   -30.8860   188.1980 h1         1 EBX       0.046700
     37 H8          42.4640   -29.4900   189.2670 h1         1 EBX       0.046700
     38 H9          42.9480   -29.2270   187.5650 h1         1 EBX       0.046700
     39 H10         53.5820   -32.4250   185.1370 h1         1 EBX       0.098700
     40 H11         51.6830   -34.8090   185.4710 hc         1 EBX       0.056700
     41 H12         53.1830   -34.8380   184.5560 hc         1 EBX       0.056700
     42 H13         51.2840   -34.5110   183.0110 hc         1 EBX       0.040700
     43 H14         50.7640   -33.0580   183.8870 hc         1 EBX       0.040700
     44 H15         52.3080   -33.0590   183.0030 hc         1 EBX       0.040700
     45 H16         56.7730   -34.7050   187.6780 h4         1 EBX       0.054100
     46 H17         52.6720   -33.7670   188.6930 ha         1 EBX       0.138000
     47 H18         56.0710   -35.1740   190.2670 hc         1 EBX       0.048700
     48 H19         54.3430   -36.3950   191.5410 hc         1 EBX       0.035867
     49 H20         53.0730   -35.7800   190.4600 hc         1 EBX       0.035867
     50 H21         54.3190   -36.8820   189.8340 hc         1 EBX       0.035867
     51 H22         55.0470   -33.9760   192.1680 hc         1 EBX       0.035867
     52 H23         55.4950   -32.8360   190.8830 hc         1 EBX       0.035867
     53 H24         53.7940   -33.3000   191.1030 hc         1 EBX       0.035867
     54 H25         49.2790   -30.7670   187.2820 hn         1 EBX       0.512000
     55 H26         50.9260   -32.6620   186.3640 hn         1 EBX       0.494000
     56 H3          46.1020   -30.1130   187.3250 ho         1 EBX       0.489000
     57 N4          51.8660   -32.2570   186.3590 nu         1 EBX      -0.786200
@<TRIPOS>BOND
     1     1     2 ar  
     2     1     6 1   
     3     1    23 ar  
     4     2     3 ar  
     5     2    26 1   
     6     3     4 ar  
     7     3    25 1   
     8     4     5 ar  
     9     4    31 1   
    10     5    23 ar  
    11     5    32 1   
    12     6    24 1   
    13     6    27 2   
    14     7    24 1   
    15     7    33 1   
    16     7    34 1   
    17     7    35 1   
    18     8    24 1   
    19     8    36 1   
    20     8    37 1   
    21     8    38 1   
    22     9    10 1   
    23     9    11 1   
    24     9    29 2   
    25    10    22 2   
    26    10    57 1   
    27    11    22 1   
    28    11    28 2   
    29    12    13 1   
    30    12    14 1   
    31    12    39 1   
    32    12    57 1   
    33    13    18 2   
    34    13    30 1   
    35    14    15 1   
    36    14    40 1   
    37    14    41 1   
    38    15    42 1   
    39    15    43 1   
    40    15    44 1   
    41    16    17 2   
    42    16    30 1   
    43    16    45 1   
    44    17    18 1   
    45    17    19 1   
    46    18    46 1   
    47    19    20 1   
    48    19    21 1   
    49    19    47 1   
    50    20    48 1   
    51    20    49 1   
    52    20    50 1   
    53    21    51 1   
    54    21    52 1   
    55    21    53 1   
    56    22    25 1   
    57    25    54 1   
    58    26    56 1   
    59    55    57 1   
@<TRIPOS>SUBSTRUCTURE
     1 EBX         1 TEMP              0 ****  ****    0 ROOT
