@<TRIPOS>MOLECULE
EBX
   57    59     1     0     0
SMALL
abcg2


@<TRIPOS>ATOM
      1 C1          46.7220   -28.8300   188.8930 ca         1 EBX       0.250500
      2 C2          47.6690   -29.6560   188.2940 ca         1 EBX       0.045100
      3 C3          49.0030   -29.2150   188.2140 ca         1 EBX       0.317000
      4 C4          49.3100   -27.9720   188.7540 ca         1 EBX      -0.176000
      5 C5          48.2910   -27.2260   189.3310 ca         1 EBX       0.338900
      6 C6          45.2610   -29.2070   188.8990 c          1 EBX       0.502600
      7 C7          45.7310   -31.0580   190.4880 c3         1 EBX       0.081300
      8 C8          43.5370   -30.8350   189.3850 c3         1 EBX       0.081300
      9 C11         53.2540   -29.8100   186.9290 c          1 EBX       0.482300
     10 C10         52.1500   -30.7820   186.7830 cc         1 EBX       0.015800
     11 C12         52.2600   -28.8510   187.5590 c          1 EBX       0.499300
     12 C13         53.2300   -32.7680   185.8400 c3         1 EBX       0.211200
     13 C14         53.7220   -33.6110   186.9750 cc         1 EBX       0.097300
     14 C15         52.8800   -33.5910   184.5950 c3         1 EBX      -0.083400
     15 C16         52.5230   -32.7270   183.3910 c3         1 EBX      -0.090100
     16 C17         55.0980   -35.0600   187.9000 cc         1 EBX       0.134900
     17 C18         54.2080   -34.7280   188.8670 cd         1 EBX      -0.142300
     18 C19         53.3100   -33.7780   188.2580 cd         1 EBX      -0.164000
     19 C20         54.1630   -35.2360   190.2790 c3         1 EBX       0.009600
     20 C21         52.8520   -35.9810   190.5600 c3         1 EBX      -0.083600
     21 C22         54.3690   -34.0970   191.2860 c3         1 EBX      -0.083600
     22 C9          51.2270   -29.8910   187.3700 cd         1 EBX      -0.046200
     23 N1          47.0240   -27.6270   189.3970 nb         1 EBX      -0.629000
     24 N2          44.9240   -30.3900   189.4680 n          1 EBX      -0.427800
     25 N3          49.9110   -30.0690   187.6040 nu         1 EBX      -0.789000
     26 O1          47.4050   -30.8800   187.7640 oh         1 EBX      -0.562100
     27 O2          44.4470   -28.4790   188.3340 o          1 EBX      -0.555100
     28 O3          52.3330   -27.7220   188.0120 o          1 EBX      -0.488100
     29 O4          54.4390   -29.7850   186.6610 o          1 EBX      -0.471100
     30 O5          54.8180   -34.3880   186.7340 os         1 EBX      -0.250000
     31 H1          50.3200   -27.5900   188.7170 ha         1 EBX       0.162000
     32 H2          48.5150   -26.2550   189.7580 h4         1 EBX       0.033100
     33 H4          45.2240   -30.9910   191.4530 h1         1 EBX       0.046700
     34 H5          45.8590   -32.1110   190.2330 h1         1 EBX       0.046700
     35 H6          46.7050   -30.5880   190.5770 h1         1 EBX       0.046700
     36 H7          43.5190   -31.9220   189.4530 h1         1 EBX       0.046700
     37 H8          42.9430   -30.4180   190.2020 h1         1 EBX       0.046700
     38 H9          43.1080   -30.5200   188.4380 h1         1 EBX       0.046700
     39 H10         54.0030   -32.0430   185.5750 h1         1 EBX       0.098700
     40 H11         52.0530   -34.2630   184.8470 hc         1 EBX       0.056700
     41 H12         53.7390   -34.2220   184.3650 hc         1 EBX       0.056700
     42 H13         52.3110   -33.3500   182.5210 hc         1 EBX       0.040700
     43 H14         51.6420   -32.1130   183.5880 hc         1 EBX       0.040700
     44 H15         53.3490   -32.0580   183.1350 hc         1 EBX       0.040700
     45 H16         55.9460   -35.7230   187.8720 h4         1 EBX       0.054100
     46 H17         52.4740   -33.2850   188.7240 ha         1 EBX       0.138000
     47 H18         54.9880   -35.9450   190.3960 hc         1 EBX       0.048700
     48 H19         52.8480   -36.3780   191.5770 hc         1 EBX       0.035867
     49 H20         51.9960   -35.3080   190.4570 hc         1 EBX       0.035867
     50 H21         52.7150   -36.8120   189.8650 hc         1 EBX       0.035867
     51 H22         54.3730   -34.4850   192.3070 hc         1 EBX       0.035867
     52 H23         55.3160   -33.5830   191.1100 hc         1 EBX       0.035867
     53 H24         53.5640   -33.3620   191.2080 hc         1 EBX       0.035867
     54 H25         49.5110   -30.9480   187.3010 hn         1 EBX       0.512000
     55 H26         51.1910   -32.5080   186.3500 hn         1 EBX       0.494000
     56 H3          46.4680   -31.1100   187.8550 ho         1 EBX       0.489000
     57 N4          52.0640   -32.0020   186.2830 nu         1 EBX      -0.786200
@<TRIPOS>BOND
     1     1     2 ar  
     2     1     6 1   
     3     1    23 ar  
     4     2     3 ar  
     5     2    26 1   
     6     3     4 ar  
     7     3    25 1   
     8     4     5 ar  
     9     4    31 1   
    10     5    23 ar  
    11     5    32 1   
    12     6    24 1   
    13     6    27 2   
    14     7    24 1   
    15     7    33 1   
    16     7    34 1   
    17     7    35 1   
    18     8    24 1   
    19     8    36 1   
    20     8    37 1   
    21     8    38 1   
    22     9    10 1   
    23     9    11 1   
    24     9    29 2   
    25    10    22 2   
    26    10    57 1   
    27    11    22 1   
    28    11    28 2   
    29    12    13 1   
    30    12    14 1   
    31    12    39 1   
    32    12    57 1   
    33    13    18 2   
    34    13    30 1   
    35    14    15 1   
    36    14    40 1   
    37    14    41 1   
    38    15    42 1   
    39    15    43 1   
    40    15    44 1   
    41    16    17 2   
    42    16    30 1   
    43    16    45 1   
    44    17    18 1   
    45    17    19 1   
    46    18    46 1   
    47    19    20 1   
    48    19    21 1   
    49    19    47 1   
    50    20    48 1   
    51    20    49 1   
    52    20    50 1   
    53    21    51 1   
    54    21    52 1   
    55    21    53 1   
    56    22    25 1   
    57    25    54 1   
    58    26    56 1   
    59    55    57 1   
@<TRIPOS>SUBSTRUCTURE
     1 EBX         1 TEMP              0 ****  ****    0 ROOT
