@<TRIPOS>MOLECULE
EBY
   63    67     1     0     0
SMALL
abcg2


@<TRIPOS>ATOM
      1 N1           4.2630     2.4090     0.1870 n8         1 EBY      -0.987200
      2 N3          -2.3770     0.5100    -0.9800 n3         1 EBY      -0.726600
      3 C4           6.3900    -1.4630    -0.8960 ca         1 EBY      -0.051200
      4 C5           4.3030    -1.2730    -1.6450 cc         1 EBY      -0.157100
      5 C6           4.3160    -0.6010    -0.4530 cd         1 EBY      -0.150400
      6 C7           3.1680     0.1230     0.1660 c3         1 EBY      -0.040200
      7 C8           3.1210     1.6200    -0.2210 c3         1 EBY       0.089500
      8 C10         -0.5590     2.5600     0.0150 c6         1 EBY       0.120700
      9 C15         -3.5960    -2.8920    -0.5880 cc         1 EBY      -0.158100
     10 C17         -6.4530    -2.1720     1.4680 ca         1 EBY      -0.124000
     11 C20         -5.3810     0.1480     0.2300 ca         1 EBY      -0.036000
     12 C21         -4.8030    -1.1050    -0.0010 ca         1 EBY      -0.080800
     13 C22         -1.7690     1.4440    -1.9050 c6         1 EBY       0.170800
     14 C24          5.6570    -0.7120     0.0460 ca         1 EBY      -0.096800
     15 N            5.5390    -1.7860    -1.9130 na         1 EBY      -0.220700
     16 O            1.8420     2.6560     1.5280 o          1 EBY      -0.603100
     17 C1           7.6400    -0.5450     1.4090 ca         1 EBY      -0.100300
     18 C11         -1.2040     1.5100     0.9180 c6         1 EBY      -0.093900
     19 C12         -1.5170     0.2350     0.1550 c6         1 EBY       0.170800
     20 C14         -3.6860    -1.5430    -0.7820 cd         1 EBY      -0.140400
     21 C16         -5.3440    -2.2480     0.6280 ca         1 EBY      -0.052200
     22 C18         -7.0210    -0.9320     1.6780 ca         1 EBY      -0.083000
     23 C19         -6.4790     0.2050     1.0600 ca         1 EBY       0.085000
     24 C2           8.3420    -1.2960     0.4420 ca         1 EBY      -0.089000
     25 C23         -1.4380     2.7610    -1.2160 c6         1 EBY      -0.093900
     26 C25          6.3030    -0.2580     1.2050 ca         1 EBY      -0.068000
     27 C3           7.7390    -1.7620    -0.7080 ca         1 EBY      -0.123000
     28 C9           1.8590     2.2170     0.3860 c          1 EBY       0.604100
     29 N2           0.7770     2.1660    -0.4030 ns         1 EBY      -0.509900
     30 N4          -4.5890    -3.3170     0.2490 na         1 EBY      -0.219700
     31 CL          -7.2290     1.7470     1.3700 cl         1 EBY      -0.219000
     32 H1           4.3640     2.3730     1.1940 hn         1 EBY       0.411500
     33 H2           5.1070     2.0080    -0.2030 hn         1 EBY       0.411500
     34 H5           3.4850    -1.4300    -2.3300 h4         1 EBY       0.209000
     35 H6           2.2300    -0.3500    -0.1390 hc         1 EBY       0.055200
     36 H7           3.2130     0.0430     1.2570 hc         1 EBY       0.055200
     37 H8           3.0550     1.6740    -1.3130 h1         1 EBY       0.059700
     38 H9          -0.4790     3.5060     0.5560 h1         1 EBY       0.074700
     39 H10         -3.3840    -0.3840    -2.5380 h1         1 EBY       0.032200
     40 H11         -1.9750    -1.3000    -2.0280 h1         1 EBY       0.032200
     41 H13         -6.8610    -3.0520     1.9490 ha         1 EBY       0.117000
     42 H14         -4.9580     1.0380    -0.2160 ha         1 EBY       0.146000
     43 H15         -0.8640     1.0200    -2.3810 h1         1 EBY       0.029200
     44 H16         -2.4700     1.6340    -2.7210 h1         1 EBY       0.029200
     45 H17          5.7740    -2.3310    -2.7250 hn         1 EBY       0.351000
     46 H21         -0.5590     1.2870     1.7700 hc         1 EBY       0.060950
     47 H22         -2.1340     1.9220     1.3190 hc         1 EBY       0.060950
     48 H23         -2.0250    -0.4660     0.8200 h1         1 EBY       0.029200
     49 H24         -0.5790    -0.2600    -0.1590 h1         1 EBY       0.029200
     50 H25         -7.8820    -0.8350     2.3250 ha         1 EBY       0.126000
     51 H26          9.3900    -1.5160     0.6110 ha         1 EBY       0.111000
     52 H27         -2.3680     3.2360    -0.8970 hc         1 EBY       0.060950
     53 H28         -0.9570     3.4400    -1.9250 hc         1 EBY       0.060950
     54 H29          5.7580     0.3170     1.9450 ha         1 EBY       0.114000
     55 H30          8.2950    -2.3400    -1.4340 ha         1 EBY       0.114000
     56 H31          0.8970     1.8190    -1.3410 hn         1 EBY       0.308500
     57 H32         -4.7280    -4.2690     0.5430 hn         1 EBY       0.352000
     58 C13         -2.8200    -0.6960    -1.6530 c3         1 EBY       0.250000
     59 C            8.3580    -0.0670     2.6400 c3         1 EBY      -0.042800
     60 H12         -2.8840    -3.5940    -0.9940 h4         1 EBY       0.211000
     61 H18          9.1960     0.5850     2.3870 hc         1 EBY       0.040700
     62 H19          7.6930     0.4910     3.2980 hc         1 EBY       0.040700
     63 H20          8.7680    -0.9010     3.2140 hc         1 EBY       0.040700
@<TRIPOS>BOND
     1     1     7 1   
     2     1    32 1   
     3     1    33 1   
     4     2    13 1   
     5     2    19 1   
     6     2    58 1   
     7     3    14 ar  
     8     3    15 1   
     9     3    27 ar  
    10     4     5 2   
    11     4    15 1   
    12     4    34 1   
    13     5     6 1   
    14     5    14 1   
    15     6     7 1   
    16     6    35 1   
    17     6    36 1   
    18     7    28 1   
    19     7    37 1   
    20     8    18 1   
    21     8    25 1   
    22     8    29 1   
    23     8    38 1   
    24     9    20 2   
    25     9    30 1   
    26     9    60 1   
    27    10    21 ar  
    28    10    22 ar  
    29    10    41 1   
    30    11    12 ar  
    31    11    23 ar  
    32    11    42 1   
    33    12    20 1   
    34    12    21 ar  
    35    13    25 1   
    36    13    43 1   
    37    13    44 1   
    38    14    26 ar  
    39    15    45 1   
    40    16    28 2   
    41    17    24 ar  
    42    17    26 ar  
    43    17    59 1   
    44    18    19 1   
    45    18    46 1   
    46    18    47 1   
    47    19    48 1   
    48    19    49 1   
    49    20    58 1   
    50    21    30 1   
    51    22    23 ar  
    52    22    50 1   
    53    23    31 1   
    54    24    27 ar  
    55    24    51 1   
    56    25    52 1   
    57    25    53 1   
    58    26    54 1   
    59    27    55 1   
    60    28    29 1   
    61    29    56 1   
    62    30    57 1   
    63    39    58 1   
    64    40    58 1   
    65    59    61 1   
    66    59    62 1   
    67    59    63 1   
@<TRIPOS>SUBSTRUCTURE
     1 EBY         1 TEMP              0 ****  ****    0 ROOT
