@<TRIPOS>MOLECULE
EBY
   63    67     1     0     0
SMALL
No Charge or Current Charge


@<TRIPOS>ATOM
      1 N1           4.3300     2.1620    -0.2430 n8         1 EBY      -0.987200
      2 N3          -2.6220     0.6270    -0.9310 n3         1 EBY      -0.726600
      3 C4           6.7070    -1.5340    -0.7650 ca         1 EBY      -0.051200
      4 C5           4.4860    -1.6160    -1.3100 cc         1 EBY      -0.157100
      5 C6           4.6590    -0.8020    -0.1970 cd         1 EBY      -0.150400
      6 C7           3.5450    -0.0860     0.5330 c3         1 EBY      -0.040200
      7 C8           3.1390     1.2540    -0.1300 c3         1 EBY       0.089500
      8 C10         -0.5700     2.4300     0.2630 c6         1 EBY       0.120700
      9 C15         -3.8890    -2.8070    -0.8360 cc         1 EBY      -0.158100
     10 C17         -6.8600    -2.1580     1.1980 ca         1 EBY      -0.124000
     11 C20         -5.7960     0.2230     0.0560 ca         1 EBY      -0.036000
     12 C21         -5.2160    -1.0320    -0.1690 ca         1 EBY      -0.080800
     13 C22         -1.9040     1.6170    -1.7750 c6         1 EBY       0.170800
     14 C24          6.0620    -0.7530     0.1500 ca         1 EBY      -0.096800
     15 N            5.7820    -2.0600    -1.6490 na         1 EBY      -0.220700
     16 O            1.9080     2.2900     1.7360 o          1 EBY      -0.603100
     17 C1           8.1530    -0.2480     1.2440 ca         1 EBY      -0.100300
     18 C11         -1.3310     1.3620     1.0870 c6         1 EBY      -0.093900
     19 C12         -1.7810     0.1700     0.2100 c6         1 EBY       0.170800
     20 C14         -4.0570    -1.4290    -0.9370 cd         1 EBY      -0.140400
     21 C16         -5.7230    -2.1760     0.3800 ca         1 EBY      -0.052200
     22 C18         -7.4740    -0.9100     1.4450 ca         1 EBY      -0.083000
     23 C19         -6.9430     0.2740     0.8770 ca         1 EBY       0.085000
     24 C2           8.8190    -1.0610     0.2910 ca         1 EBY      -0.089000
     25 C23         -1.4450     2.8410    -0.9460 c6         1 EBY      -0.093900
     26 C25          6.7490    -0.0900     1.1770 ca         1 EBY      -0.068000
     27 C3           8.0950    -1.7160    -0.7290 ca         1 EBY      -0.123000
     28 C9           1.8820     1.8690     0.5840 c          1 EBY       0.604100
     29 N2           0.7370     1.9250    -0.1840 ns         1 EBY      -0.509900
     30 N4          -4.9430    -3.2510    -0.0080 na         1 EBY      -0.219700
     31 Cl          -7.7180     1.8210     1.1990 cl         1 EBY      -0.219000
     32 H1           4.5970     2.4740     0.6990 hn         1 EBY       0.411500
     33 H2           5.1320     1.5870    -0.5340 hn         1 EBY       0.411500
     34 H5           3.5940    -1.8990    -1.8620 h4         1 EBY       0.209000
     35 H6           2.6620    -0.7370     0.5720 hc         1 EBY       0.055200
     36 H7           3.8270     0.0940     1.5780 hc         1 EBY       0.055200
     37 H8           2.8300     1.0150    -1.1580 h1         1 EBY       0.059700
     38 H9          -0.3980     3.3160     0.8930 h1         1 EBY       0.074700
     39 H10         -3.7670    -0.0980    -2.5620 h1         1 EBY       0.032200
     40 H11         -2.3490    -1.0760    -2.1710 h1         1 EBY       0.032200
     41 H13         -7.2580    -3.0740     1.6310 ha         1 EBY       0.117000
     42 H14         -5.3770     1.1250    -0.3820 ha         1 EBY       0.146000
     43 H15         -1.0300     1.1480    -2.2510 h1         1 EBY       0.029200
     44 H16         -2.5600     1.9690    -2.5850 h1         1 EBY       0.029200
     45 H17          6.0080    -2.6760    -2.4240 hn         1 EBY       0.351000
     46 H21         -0.7050     1.0010     1.9130 hc         1 EBY       0.060950
     47 H22         -2.2150     1.8200     1.5490 hc         1 EBY       0.060950
     48 H23         -2.3390    -0.5320     0.8460 h1         1 EBY       0.029200
     49 H24         -0.8940    -0.3670    -0.1600 h1         1 EBY       0.029200
     50 H25         -8.3570    -0.8560     2.0760 ha         1 EBY       0.126000
     51 H26          9.8990    -1.1860     0.3440 ha         1 EBY       0.111000
     52 H27         -2.3310     3.3810    -0.5860 hc         1 EBY       0.060950
     53 H28         -0.8970     3.5430    -1.5880 hc         1 EBY       0.060950
     54 H29          6.2180     0.5230     1.9010 ha         1 EBY       0.114000
     55 H30          8.6000    -2.3410    -1.4620 ha         1 EBY       0.114000
     56 H31          0.8140     1.5740    -1.1300 hn         1 EBY       0.308500
     57 H32         -5.1090    -4.2150     0.2650 hn         1 EBY       0.352000
     58 C13         -3.1700    -0.4940    -1.7300 c3         1 EBY       0.250000
     59 C            8.9470     0.4460     2.3410 c3         1 EBY      -0.042800
     60 H12         -3.1440    -3.4720    -1.2650 h4         1 EBY       0.211000
     61 H18          9.9490     0.7240     1.9930 hc         1 EBY       0.040700
     62 H19          8.4490     1.3640     2.6760 hc         1 EBY       0.040700
     63 H20          9.0630    -0.2090     3.2120 hc         1 EBY       0.040700
@<TRIPOS>BOND
     1     1     7 1   
     2     1    32 1   
     3     1    33 1   
     4     2    13 1   
     5     2    19 1   
     6     2    58 1   
     7     3    14 ar  
     8     3    15 1   
     9     3    27 ar  
    10     4     5 2   
    11     4    15 1   
    12     4    34 1   
    13     5     6 1   
    14     5    14 1   
    15     6     7 1   
    16     6    35 1   
    17     6    36 1   
    18     7    28 1   
    19     7    37 1   
    20     8    18 1   
    21     8    25 1   
    22     8    29 1   
    23     8    38 1   
    24     9    20 2   
    25     9    30 1   
    26     9    60 1   
    27    10    21 ar  
    28    10    22 ar  
    29    10    41 1   
    30    11    12 ar  
    31    11    23 ar  
    32    11    42 1   
    33    12    20 1   
    34    12    21 ar  
    35    13    25 1   
    36    13    43 1   
    37    13    44 1   
    38    14    26 ar  
    39    15    45 1   
    40    16    28 2   
    41    17    24 ar  
    42    17    26 ar  
    43    17    59 1   
    44    18    19 1   
    45    18    46 1   
    46    18    47 1   
    47    19    48 1   
    48    19    49 1   
    49    20    58 1   
    50    21    30 1   
    51    22    23 ar  
    52    22    50 1   
    53    23    31 1   
    54    24    27 ar  
    55    24    51 1   
    56    25    52 1   
    57    25    53 1   
    58    26    54 1   
    59    27    55 1   
    60    28    29 1   
    61    29    56 1   
    62    30    57 1   
    63    39    58 1   
    64    40    58 1   
    65    59    61 1   
    66    59    62 1   
    67    59    63 1   
@<TRIPOS>SUBSTRUCTURE
     1 EBY         1 TEMP              0 ****  ****    0 ROOT
