@<TRIPOS>MOLECULE
EBZ
   50    52     1     0     0
SMALL
abcg2


@<TRIPOS>ATOM
      1 C10        121.7070   117.2510   111.3380 c          1 EBZ       0.572100
      2 C11        121.6630   117.4100   108.8590 c6         1 EBZ       0.207800
      3 C12        122.0200   115.2410   107.6680 c6         1 EBZ       0.195800
      4 C13        122.4460   117.7790   110.1230 c6         1 EBZ      -0.194700
      5 C14        121.1250   114.0820   107.2420 c6         1 EBZ      -0.027100
      6 C15        119.2570   112.0260   110.5470 ca         1 EBZ       0.109100
      7 C16        119.8290   112.1630   108.2100 ca         1 EBZ      -0.170000
      8 C17        119.2130   111.4810   109.2470 ca         1 EBZ       0.114100
      9 C05        121.3020   115.2040   109.9480 c6         1 EBZ       0.264800
     10 C06        120.5300   113.9180   109.7030 ca         1 EBZ      -0.069300
     11 C07        120.4920   113.3790   108.4210 ca         1 EBZ      -0.057300
     12 C08        120.7880   116.0730   111.0950 c6         1 EBZ      -0.181400
     13 C09        119.9170   113.2270   110.7560 ca         1 EBZ      -0.162000
     14 C18        123.9090   117.2810   110.1560 c3         1 EBZ      -0.062400
     15 C19        124.7900   117.7690   108.9990 c3         1 EBZ      -0.062700
     16 C20        118.6600   111.8220   112.8500 c3         1 EBZ       0.145900
     17 C21        118.4880   109.7130   107.8160 c3         1 EBZ       0.145900
     18 C22        126.1830   117.1470   109.1230 c3         1 EBZ      -0.088600
     19 C23        124.8800   119.2940   108.9370 c3         1 EBZ      -0.088600
     20 N04        121.3460   115.9870   108.7170 n3         1 EBZ      -0.774600
     21 O01        118.6310   111.3070   111.5220 os         1 EBZ      -0.329100
     22 O02        118.5520   110.2970   109.1140 os         1 EBZ      -0.329100
     23 O03        121.8460   117.7390   112.4440 o          1 EBZ      -0.522100
     24 H111       122.2040   117.7370   107.9730 h1         1 EBZ       0.049700
     25 H112       120.7290   117.9840   108.8770 h1         1 EBZ       0.049700
     26 H121       122.9960   114.8550   108.0130 h1         1 EBZ       0.032700
     27 H122       122.2090   115.8990   106.8210 h1         1 EBZ       0.032700
     28 H131       122.4530   118.8670   110.2200 hc         1 EBZ       0.079700
     29 H142       120.3320   114.4710   106.5940 hc         1 EBZ       0.052200
     30 H141       121.6950   113.3650   106.6440 hc         1 EBZ       0.052200
     31 H161       119.8050   111.7540   107.2090 ha         1 EBZ       0.117000
     32 H051       122.3250   114.8880   110.2270 h1         1 EBZ       0.029700
     33 H082       119.7970   116.4680   110.8430 hc         1 EBZ       0.079700
     34 H081       120.6960   115.5180   112.0250 hc         1 EBZ       0.079700
     35 H091       119.9540   113.6330   111.7540 ha         1 EBZ       0.117000
     36 H181       123.9300   116.1890   110.1670 hc         1 EBZ       0.048700
     37 H182       124.3530   117.6100   111.1000 hc         1 EBZ       0.048700
     38 H191       124.3540   117.4140   108.0610 hc         1 EBZ       0.041700
     39 H201       118.1100   111.1070   113.4580 h1         1 EBZ       0.040367
     40 H202       119.6850   111.9040   113.2190 h1         1 EBZ       0.040367
     41 H203       118.1760   112.8000   112.9060 h1         1 EBZ       0.040367
     42 H213       117.9260   108.7900   107.9320 h1         1 EBZ       0.040033
     43 H211       117.9740   110.3710   107.1120 h1         1 EBZ       0.040033
     44 H212       119.4880   109.4870   107.4360 h1         1 EBZ       0.040033
     45 H221       126.1270   116.0560   109.1390 hc         1 EBZ       0.034533
     46 H223       126.8190   117.4420   108.2860 hc         1 EBZ       0.034533
     47 H222       126.6700   117.4720   110.0470 hc         1 EBZ       0.034533
     48 H233       123.9090   119.7550   108.7520 hc         1 EBZ       0.034533
     49 H231       125.2700   119.6940   109.8770 hc         1 EBZ       0.034533
     50 H232       125.5530   119.6060   108.1350 hc         1 EBZ       0.034533
@<TRIPOS>BOND
     1     1     4 1   
     2     1    12 1   
     3     1    23 2   
     4     2     4 1   
     5     2    20 1   
     6     2    24 1   
     7     2    25 1   
     8     3     5 1   
     9     3    20 1   
    10     3    26 1   
    11     3    27 1   
    12     4    14 1   
    13     4    28 1   
    14     5    11 1   
    15     5    29 1   
    16     5    30 1   
    17     6     8 ar  
    18     6    13 ar  
    19     6    21 1   
    20     7     8 ar  
    21     7    11 ar  
    22     7    31 1   
    23     8    22 1   
    24     9    10 1   
    25     9    12 1   
    26     9    20 1   
    27     9    32 1   
    28    10    11 ar  
    29    10    13 ar  
    30    12    33 1   
    31    12    34 1   
    32    13    35 1   
    33    14    15 1   
    34    14    36 1   
    35    14    37 1   
    36    15    18 1   
    37    15    19 1   
    38    15    38 1   
    39    16    21 1   
    40    16    39 1   
    41    16    40 1   
    42    16    41 1   
    43    17    22 1   
    44    17    42 1   
    45    17    43 1   
    46    17    44 1   
    47    18    45 1   
    48    18    46 1   
    49    18    47 1   
    50    19    48 1   
    51    19    49 1   
    52    19    50 1   
@<TRIPOS>SUBSTRUCTURE
     1 EBZ         1 TEMP              0 ****  ****    0 ROOT
