@<TRIPOS>MOLECULE
EBZ
   50    52     1     0     0
SMALL
No Charge or Current Charge


@<TRIPOS>ATOM
      1 C10        121.7630   117.2490   111.4150 c          1 EBZ       0.572100
      2 C11        121.6460   117.5040   108.9110 c6         1 EBZ       0.207800
      3 C12        121.9610   115.3580   107.6760 c6         1 EBZ       0.195800
      4 C13        122.4790   117.8100   110.1740 c6         1 EBZ      -0.194700
      5 C14        121.2030   114.0630   107.2940 c6         1 EBZ      -0.027100
      6 C15        119.1850   111.9810   110.5530 ca         1 EBZ       0.109100
      7 C16        119.8770   112.1150   108.2180 ca         1 EBZ      -0.170000
      8 C17        119.2090   111.4280   109.2530 ca         1 EBZ       0.114100
      9 C05        121.2400   115.2440   110.0020 c6         1 EBZ       0.264800
     10 C06        120.4870   113.9130   109.7630 ca         1 EBZ      -0.069300
     11 C07        120.5160   113.3430   108.4670 ca         1 EBZ      -0.057300
     12 C08        120.7760   116.1000   111.1950 c6         1 EBZ      -0.181400
     13 C09        119.8270   113.2160   110.8020 ca         1 EBZ      -0.162000
     14 C18        123.9600   117.2890   110.1190 c3         1 EBZ      -0.062400
     15 C19        124.8370   117.7920   108.9370 c3         1 EBZ      -0.062700
     16 C20        118.4420   111.7620   112.9090 c3         1 EBZ       0.145900
     17 C21        118.5450   109.5790   107.7440 c3         1 EBZ       0.145900
     18 C22        126.2410   117.1460   108.9790 c3         1 EBZ      -0.088600
     19 C23        124.9470   119.3350   108.8790 c3         1 EBZ      -0.088600
     20 N04        121.2510   116.0710   108.7610 n3         1 EBZ      -0.774600
     21 O01        118.5280   111.2830   111.5550 os         1 EBZ      -0.329100
     22 O02        118.5720   110.2160   109.0340 os         1 EBZ      -0.329100
     23 O03        121.9840   117.6920   112.5360 o          1 EBZ      -0.522100
     24 H111       122.1580   117.8790   108.0130 h1         1 EBZ       0.049700
     25 H112       120.7240   118.1000   108.9850 h1         1 EBZ       0.049700
     26 H121       122.9820   115.1030   107.9970 h1         1 EBZ       0.032700
     27 H122       122.0520   115.9880   106.7790 h1         1 EBZ       0.032700
     28 H131       122.5500   118.8940   110.3270 hc         1 EBZ       0.079700
     29 H142       120.4320   114.3220   106.5560 hc         1 EBZ       0.052200
     30 H141       121.8920   113.3790   106.7820 hc         1 EBZ       0.052200
     31 H161       119.9080   111.7120   107.2100 ha         1 EBZ       0.117000
     32 H051       122.2670   114.9340   110.2360 h1         1 EBZ       0.029700
     33 H082       119.8030   116.5370   110.9400 hc         1 EBZ       0.079700
     34 H081       120.6750   115.5550   112.1390 hc         1 EBZ       0.079700
     35 H091       119.8200   113.6270   111.8030 ha         1 EBZ       0.117000
     36 H181       123.9750   116.1950   110.1000 hc         1 EBZ       0.048700
     37 H182       124.4650   117.5670   111.0530 hc         1 EBZ       0.048700
     38 H191       124.3720   117.4600   108.0010 hc         1 EBZ       0.041700
     39 H201       117.8760   111.0550   113.5270 h1         1 EBZ       0.040367
     40 H202       119.4420   111.8720   113.3490 h1         1 EBZ       0.040367
     41 H203       117.9310   112.7320   112.9480 h1         1 EBZ       0.040367
     42 H213       117.9890   108.6340   107.7990 h1         1 EBZ       0.040033
     43 H211       118.0530   110.2200   107.0020 h1         1 EBZ       0.040033
     44 H212       119.5620   109.3540   107.3990 h1         1 EBZ       0.040033
     45 H221       126.1650   116.0520   108.9590 hc         1 EBZ       0.034533
     46 H223       126.8380   117.4560   108.1130 hc         1 EBZ       0.034533
     47 H222       126.7790   117.4370   109.8890 hc         1 EBZ       0.034533
     48 H233       123.9690   119.7950   108.6970 hc         1 EBZ       0.034533
     49 H231       125.3480   119.7340   109.8180 hc         1 EBZ       0.034533
     50 H232       125.6120   119.6450   108.0640 hc         1 EBZ       0.034533
@<TRIPOS>BOND
     1     1     4 1   
     2     1    12 1   
     3     1    23 2   
     4     2     4 1   
     5     2    20 1   
     6     2    24 1   
     7     2    25 1   
     8     3     5 1   
     9     3    20 1   
    10     3    26 1   
    11     3    27 1   
    12     4    14 1   
    13     4    28 1   
    14     5    11 1   
    15     5    29 1   
    16     5    30 1   
    17     6     8 ar  
    18     6    13 ar  
    19     6    21 1   
    20     7     8 ar  
    21     7    11 ar  
    22     7    31 1   
    23     8    22 1   
    24     9    10 1   
    25     9    12 1   
    26     9    20 1   
    27     9    32 1   
    28    10    11 ar  
    29    10    13 ar  
    30    12    33 1   
    31    12    34 1   
    32    13    35 1   
    33    14    15 1   
    34    14    36 1   
    35    14    37 1   
    36    15    18 1   
    37    15    19 1   
    38    15    38 1   
    39    16    21 1   
    40    16    39 1   
    41    16    40 1   
    42    16    41 1   
    43    17    22 1   
    44    17    42 1   
    45    17    43 1   
    46    17    44 1   
    47    18    45 1   
    48    18    46 1   
    49    18    47 1   
    50    19    48 1   
    51    19    49 1   
    52    19    50 1   
@<TRIPOS>SUBSTRUCTURE
     1 EBZ         1 TEMP              0 ****  ****    0 ROOT
