@<TRIPOS>MOLECULE
EC0
   20    21     1     0     0
SMALL
No Charge or Current Charge


@<TRIPOS>ATOM
      1 C10          9.1400    -6.1150     0.5290 ca         1 EC0      -0.206200
      2 C11         10.1830    -6.6000    -0.3100 ca         1 EC0       0.002000
      3 C12         11.4700    -5.9780    -0.2900 ca         1 EC0       0.229000
      4 C13         11.6790    -4.8780     0.5920 ca         1 EC0       0.245100
      5 C14          9.9890    -7.7120    -1.1640 ca         1 EC0      -0.065000
      6 C15         11.0500    -8.1480    -1.9700 ca         1 EC0      -0.136000
      7 C16         12.2750    -7.4760    -1.9050 ca         1 EC0       0.345900
      8 C8          10.6430    -4.4210     1.4280 ca         1 EC0      -0.044000
      9 C9           9.3850    -5.0340     1.3970 ca         1 EC0       0.029000
     10 N17         12.4850    -6.4220    -1.0870 nb         1 EC0      -0.625000
     11 N18          7.7720    -6.7020     0.5250 no         1 EC0       0.701200
     12 O1           7.2430    -6.9180     1.6220 o          1 EC0      -0.399000
     13 O19         12.9000    -4.2450     0.6500 oh         1 EC0      -0.471100
     14 O2           7.1600    -6.7260    -0.5500 o          1 EC0      -0.399000
     15 Cl7         10.9020    -3.0620     2.5250 cl         1 EC0      -0.175000
     16 H1           9.0450    -8.2490    -1.2120 ha         1 EC0       0.153000
     17 H2          10.9310    -8.9970    -2.6370 ha         1 EC0       0.134000
     18 H3          13.1170    -7.7920    -2.5200 h4         1 EC0       0.031100
     19 H4           8.5940    -4.6570     2.0450 ha         1 EC0       0.163000
     20 H5          12.8290    -3.5280     1.3140 ho         1 EC0       0.487000
@<TRIPOS>BOND
     1     1     2 ar  
     2     1     9 ar  
     3     1    11 1   
     4     2     3 ar  
     5     2     5 ar  
     6     3     4 ar  
     7     3    10 ar  
     8     4     8 ar  
     9     4    13 1   
    10     5     6 ar  
    11     5    16 1   
    12     6     7 ar  
    13     6    17 1   
    14     7    10 ar  
    15     7    18 1   
    16     8     9 ar  
    17     8    15 1   
    18     9    19 1   
    19    11    12 1   
    20    11    14 1   
    21    13    20 1   
@<TRIPOS>SUBSTRUCTURE
     1 EC0         1 TEMP              0 ****  ****    0 ROOT
