@<TRIPOS>MOLECULE
EC0
   20    21     1     0     0
SMALL
abcg2


@<TRIPOS>ATOM
      1 C10          9.1190    -6.1010     0.5460 ca         1 EC0      -0.206200
      2 C11         10.1220    -6.6060    -0.3270 ca         1 EC0       0.002000
      3 C12         11.3960    -5.9850    -0.2850 ca         1 EC0       0.229000
      4 C13         11.6460    -4.8910     0.6010 ca         1 EC0       0.245100
      5 C14          9.9960    -7.7140    -1.1990 ca         1 EC0      -0.065000
      6 C15         11.0660    -8.1000    -1.9550 ca         1 EC0      -0.136000
      7 C16         12.2720    -7.3850    -1.8560 ca         1 EC0       0.345900
      8 C8          10.6320    -4.4700     1.4350 ca         1 EC0      -0.044000
      9 C9           9.3770    -5.0740     1.4150 ca         1 EC0       0.029000
     10 N17         12.4340    -6.3740    -1.0490 nb         1 EC0      -0.625000
     11 N18          7.7670    -6.6170     0.5510 no         1 EC0       0.701200
     12 O1           7.1330    -6.5360     1.5790 o          1 EC0      -0.399000
     13 O19         12.8520    -4.3540     0.5660 oh         1 EC0      -0.471100
     14 O2           7.3240    -7.0800    -0.4750 o          1 EC0      -0.399000
     15 CL7         10.9210    -3.1550     2.5160 cl         1 EC0      -0.175000
     16 H1           9.0750    -8.2680    -1.2700 ha         1 EC0       0.153000
     17 H2          10.9930    -8.9470    -2.6230 ha         1 EC0       0.134000
     18 H3          13.1240    -7.6730    -2.4620 h4         1 EC0       0.031100
     19 H4           8.6070    -4.7040     2.0760 ha         1 EC0       0.163000
     20 H5          12.9360    -3.6270     1.1990 ho         1 EC0       0.487000
@<TRIPOS>BOND
     1     1     2 ar  
     2     1     9 ar  
     3     1    11 1   
     4     2     3 ar  
     5     2     5 ar  
     6     3     4 ar  
     7     3    10 ar  
     8     4     8 ar  
     9     4    13 1   
    10     5     6 ar  
    11     5    16 1   
    12     6     7 ar  
    13     6    17 1   
    14     7    10 ar  
    15     7    18 1   
    16     8     9 ar  
    17     8    15 1   
    18     9    19 1   
    19    11    12 1   
    20    11    14 1   
    21    13    20 1   
@<TRIPOS>SUBSTRUCTURE
     1 EC0         1 TEMP              0 ****  ****    0 ROOT
