@<TRIPOS>MOLECULE
EC3
   32    34     1     0     0
SMALL
abcg2


@<TRIPOS>ATOM
      1 C1          10.9540    -3.0570     1.3050 c5         1 EC3      -0.161400
      2 C10          8.0960    -8.0610    -1.4370 ca         1 EC3       0.079000
      3 C11          8.9250    -8.1690    -2.5770 ca         1 EC3      -0.036000
      4 C12         10.2760    -7.7540    -2.4700 ca         1 EC3       0.235000
      5 C13         10.7750    -7.2340    -1.2330 ca         1 EC3       0.236100
      6 C14          8.4990    -8.6680    -3.8280 ca         1 EC3      -0.072000
      7 C15          9.3890    -8.7360    -4.8610 ca         1 EC3      -0.148000
      8 C16         10.7100    -8.3010    -4.6460 ca         1 EC3       0.335900
      9 C2           9.7460    -3.2090     2.2270 c5         1 EC3      -0.093400
     10 C3           9.2050    -4.6010     1.8920 c5         1 EC3       0.095000
     11 C5          11.3610    -4.4770     1.0090 c          1 EC3       0.562000
     12 C8           9.9390    -7.1830    -0.1340 ca         1 EC3      -0.252300
     13 C9           8.5950    -7.5920    -0.2580 ca         1 EC3      -0.041000
     14 N17         11.1370    -7.8280    -3.5060 nb         1 EC3      -0.621000
     15 N4          10.3890    -5.2960     1.4160 n          1 EC3      -0.401800
     16 O6          12.4010    -4.8410     0.4540 o          1 EC3      -0.586000
     17 CL1          6.4340    -8.5510    -1.5270 cl         1 EC3      -0.205000
     18 H1          11.7770    -2.4900     1.7360 hc         1 EC3       0.083700
     19 H2          10.6910    -2.5790     0.3560 hc         1 EC3       0.083700
     20 H3           7.4780    -8.9950    -3.9640 ha         1 EC3       0.131000
     21 H4           9.0940    -9.1150    -5.8300 ha         1 EC3       0.125000
     22 H5          11.4300    -8.3480    -5.4560 h4         1 EC3       0.023100
     23 H6          10.0650    -3.1800     3.2690 hc         1 EC3       0.060700
     24 H7           8.9960    -2.4340     2.0840 hc         1 EC3       0.060700
     25 H8           8.4390    -4.5670     1.1110 h1         1 EC3       0.053700
     26 H9           8.7840    -5.1140     2.7560 h1         1 EC3       0.053700
     27 H10          9.8220    -7.1860     1.9960 h1         1 EC3       0.066700
     28 H11         11.4530    -7.0710     1.3940 h1         1 EC3       0.066700
     29 H12          7.9550    -7.5450     0.6140 ha         1 EC3       0.120000
     30 H13         12.2440    -6.1970    -0.5140 ho         1 EC3       0.519000
     31 C7          10.4320    -6.7290     1.2170 c3         1 EC3       0.157300
     32 O19         12.0520    -6.8590    -1.2250 oh         1 EC3      -0.530100
@<TRIPOS>BOND
     1     1     9 1   
     2     1    11 1   
     3     1    18 1   
     4     1    19 1   
     5     2     3 ar  
     6     2    13 ar  
     7     2    17 1   
     8     3     4 ar  
     9     3     6 ar  
    10     4     5 ar  
    11     4    14 ar  
    12     5    12 ar  
    13     5    32 1   
    14     6     7 ar  
    15     6    20 1   
    16     7     8 ar  
    17     7    21 1   
    18     8    14 ar  
    19     8    22 1   
    20     9    10 1   
    21     9    23 1   
    22     9    24 1   
    23    10    15 1   
    24    10    25 1   
    25    10    26 1   
    26    11    15 1   
    27    11    16 2   
    28    12    13 ar  
    29    12    31 1   
    30    13    29 1   
    31    15    31 1   
    32    27    31 1   
    33    28    31 1   
    34    30    32 1   
@<TRIPOS>SUBSTRUCTURE
     1 EC3         1 TEMP              0 ****  ****    0 ROOT
