@<TRIPOS>MOLECULE
EC3
   32    34     1     0     0
SMALL
No Charge or Current Charge


@<TRIPOS>ATOM
      1 C1          10.6830    -2.9650     1.1530 c5         1 EC3      -0.161400
      2 C10          8.0860    -7.9540    -1.6410 ca         1 EC3       0.079000
      3 C11          9.0060    -8.1760    -2.6910 ca         1 EC3      -0.036000
      4 C12         10.3890    -7.8900    -2.5010 ca         1 EC3       0.235000
      5 C13         10.8130    -7.3780    -1.2360 ca         1 EC3       0.236100
      6 C14          8.5770    -8.6780    -3.9410 ca         1 EC3      -0.072000
      7 C15          9.5280    -8.8770    -4.9520 ca         1 EC3      -0.148000
      8 C16         10.8690    -8.5720    -4.6940 ca         1 EC3       0.335900
      9 C2          10.0180    -3.2030     2.5350 c5         1 EC3      -0.093400
     10 C3           9.2640    -4.5450     2.2740 c5         1 EC3       0.095000
     11 C5          11.1250    -4.3660     0.7500 c          1 EC3       0.562000
     12 C8           9.8860    -7.1730    -0.1880 ca         1 EC3      -0.252300
     13 C9           8.5280    -7.4600    -0.4070 ca         1 EC3      -0.041000
     14 N17         11.2930    -8.0910    -3.5050 nb         1 EC3      -0.621000
     15 N4          10.1800    -5.2110     1.3250 n          1 EC3      -0.401800
     16 O6          12.1740    -4.7430     0.2480 o          1 EC3      -0.586000
     17 Cl1          6.3610    -8.2860    -1.8230 cl         1 EC3      -0.205000
     18 H1          11.5170    -2.2550     1.1400 hc         1 EC3       0.083700
     19 H2           9.9060    -2.6420     0.4520 hc         1 EC3       0.083700
     20 H3           7.5350    -8.9130    -4.1400 ha         1 EC3       0.131000
     21 H4           9.2340    -9.2620    -5.9250 ha         1 EC3       0.125000
     22 H5          11.6300    -8.7150    -5.4600 h4         1 EC3       0.023100
     23 H6          10.7740    -3.3250     3.3210 hc         1 EC3       0.060700
     24 H7           9.3480    -2.3910     2.8410 hc         1 EC3       0.060700
     25 H8           8.2850    -4.3760     1.8070 h1         1 EC3       0.053700
     26 H9           9.1190    -5.1250     3.1960 h1         1 EC3       0.053700
     27 H10          9.6680    -7.1460     1.9510 h1         1 EC3       0.066700
     28 H11         11.3340    -6.9750     1.4220 h1         1 EC3       0.066700
     29 H12          7.8030    -7.3020     0.3900 ha         1 EC3       0.120000
     30 H13         12.1710    -6.2290    -0.4970 ho         1 EC3       0.519000
     31 C7          10.3040    -6.6710     1.1910 c3         1 EC3       0.157300
     32 O19         12.1360    -7.0720    -1.0250 oh         1 EC3      -0.530100
@<TRIPOS>BOND
     1     1     9 1   
     2     1    11 1   
     3     1    18 1   
     4     1    19 1   
     5     2     3 ar  
     6     2    13 ar  
     7     2    17 1   
     8     3     4 ar  
     9     3     6 ar  
    10     4     5 ar  
    11     4    14 ar  
    12     5    12 ar  
    13     5    32 1   
    14     6     7 ar  
    15     6    20 1   
    16     7     8 ar  
    17     7    21 1   
    18     8    14 ar  
    19     8    22 1   
    20     9    10 1   
    21     9    23 1   
    22     9    24 1   
    23    10    15 1   
    24    10    25 1   
    25    10    26 1   
    26    11    15 1   
    27    11    16 2   
    28    12    13 ar  
    29    12    31 1   
    30    13    29 1   
    31    15    31 1   
    32    27    31 1   
    33    28    31 1   
    34    30    32 1   
@<TRIPOS>SUBSTRUCTURE
     1 EC3         1 TEMP              0 ****  ****    0 ROOT
