@<TRIPOS>MOLECULE
EC4
   60    64     1     0     0
SMALL
bcc


@<TRIPOS>ATOM
      1 N1           5.6660    -2.4380     0.4550 na         1 EC4      -0.167400
      2 N3          -3.1250     0.2630    -0.7700 n3         1 EC4      -0.726600
      3 C4           6.5450    -1.4030     0.3940 ca         1 EC4      -0.041200
      4 C5           7.9180    -1.4070     0.1540 ca         1 EC4      -0.139000
      5 C6           8.5470    -0.1800     0.1620 ca         1 EC4       0.049400
      6 C7           7.8620     1.0200     0.3980 ca         1 EC4      -0.148000
      7 C8           6.5030     1.0050     0.6310 ca         1 EC4      -0.075000
      8 C10          1.4240     1.6580     0.1360 c          1 EC4       0.671100
      9 C13         -2.2570     1.2110    -1.4440 c6         1 EC4       0.169300
     10 C15         -4.8770    -1.4150    -1.0570 cc         1 EC4      -0.140400
     11 C17         -6.7210    -2.0210     0.1560 ca         1 EC4      -0.052200
     12 C20         -7.2450     0.4450     1.2220 ca         1 EC4      -0.007600
     13 C21         -6.1560     0.3310     0.3860 ca         1 EC4      -0.054000
     14 C22         -5.8890    -0.9260    -0.1690 ca         1 EC4      -0.081800
     15 C24         -1.8690     0.5000     1.3130 c6         1 EC4      -0.093400
     16 N            3.5050     1.5770    -1.0920 n8         1 EC4      -0.877800
     17 C            2.6360     0.8090    -0.2270 c3         1 EC4       0.089500
     18 O            1.5230     2.8590     0.3440 o          1 EC4      -0.602100
     19 C1           3.2820     0.3040     1.0850 c3         1 EC4      -0.042200
     20 C11         -0.9770     1.5750     0.6980 c6         1 EC4       0.118700
     21 C12         -1.7190     2.2390    -0.4630 c6         1 EC4      -0.093400
     22 C16         -5.1280    -2.7480    -1.2160 cd         1 EC4      -0.110100
     23 C18         -7.8160    -1.8880     1.0070 ca         1 EC4      -0.143000
     24 C19         -8.0750    -0.6410     1.5380 ca         1 EC4      -0.101000
     25 C2           4.4500    -0.5920     0.8400 cc         1 EC4      -0.144400
     26 C23         -2.4130    -0.4590     0.2640 c6         1 EC4       0.169300
     27 C3           4.4160    -1.9540     0.7230 cd         1 EC4      -0.103100
     28 C9           5.8160    -0.2150     0.6300 ca         1 EC4      -0.101800
     29 N2           0.2770     0.9770     0.2680 ns         1 EC4      -0.575900
     30 N4          -6.2320    -3.1110    -0.4980 na         1 EC4      -0.169400
     31 CL          10.2590    -0.1120    -0.1300 cl         1 EC4      -0.115400
     32 CL1         -7.6100     1.9940     1.9310 cl         1 EC4      -0.126400
     33 H1           5.8970    -3.4120     0.3470 hn         1 EC4       0.303700
     34 H3           8.4620    -2.3240    -0.0280 ha         1 EC4       0.148000
     35 H4           8.4040     1.9570     0.3970 ha         1 EC4       0.149000
     36 H5           5.9840     1.9370     0.8190 ha         1 EC4       0.139000
     37 H6          -1.4180     0.7040    -1.9550 h1         1 EC4       0.030950
     38 H7          -2.8320     1.7200    -2.2210 h1         1 EC4       0.030950
     39 H8          -5.5110     1.1730     0.1740 ha         1 EC4       0.166000
     40 H9          -1.3260    -0.0550     2.0810 hc         1 EC4       0.060450
     41 H10         -2.7110     0.9940     1.8040 hc         1 EC4       0.060450
     42 H11          3.8170     2.4120    -0.6100 hn         1 EC4       0.356300
     43 H12          4.3350     1.0380    -1.3060 hn         1 EC4       0.356300
     44 H14          2.3040    -0.0720    -0.7860 h1         1 EC4       0.059700
     45 H15          3.5890     1.1690     1.6830 hc         1 EC4       0.057700
     46 H16          2.5300    -0.2300     1.6710 hc         1 EC4       0.057700
     47 H17         -0.7450     2.3270     1.4540 h1         1 EC4       0.075700
     48 H18         -1.0640     2.9440    -0.9780 hc         1 EC4       0.060450
     49 H19         -2.5550     2.8130    -0.0540 hc         1 EC4       0.060450
     50 H20         -4.2280     0.0120    -2.4910 h1         1 EC4       0.035200
     51 H21         -3.0950    -1.3020    -2.2170 h1         1 EC4       0.035200
     52 H22         -4.5920    -3.4770    -1.8040 h4         1 EC4       0.161000
     53 H23         -8.4500    -2.7310     1.2510 ha         1 EC4       0.134000
     54 H24         -8.9160    -0.5010     2.2030 ha         1 EC4       0.144000
     55 H25         -3.0950    -1.1610     0.7460 h1         1 EC4       0.030950
     56 H26         -1.5970    -1.0720    -0.1650 h1         1 EC4       0.030950
     57 H27          3.5790    -2.6280     0.8170 h4         1 EC4       0.163000
     58 H28          0.2820    -0.0050     0.0460 hn         1 EC4       0.309500
     59 H29         -6.6120    -4.0420    -0.4550 hn         1 EC4       0.301700
     60 C14         -3.7960    -0.6180    -1.7070 c3         1 EC4       0.249000
@<TRIPOS>BOND
     1     1     3 1   
     2     1    27 1   
     3     1    33 1   
     4     2     9 1   
     5     2    26 1   
     6     2    60 1   
     7     3     4 ar  
     8     3    28 ar  
     9     4     5 ar  
    10     4    34 1   
    11     5     6 ar  
    12     5    31 1   
    13     6     7 ar  
    14     6    35 1   
    15     7    28 ar  
    16     7    36 1   
    17     8    17 1   
    18     8    18 2   
    19     8    29 1   
    20     9    21 1   
    21     9    37 1   
    22     9    38 1   
    23    10    14 1   
    24    10    22 2   
    25    10    60 1   
    26    11    14 ar  
    27    11    23 ar  
    28    11    30 1   
    29    12    13 ar  
    30    12    24 ar  
    31    12    32 1   
    32    13    14 ar  
    33    13    39 1   
    34    15    20 1   
    35    15    26 1   
    36    15    40 1   
    37    15    41 1   
    38    16    17 1   
    39    16    42 1   
    40    16    43 1   
    41    17    19 1   
    42    17    44 1   
    43    19    25 1   
    44    19    45 1   
    45    19    46 1   
    46    20    21 1   
    47    20    29 1   
    48    20    47 1   
    49    21    48 1   
    50    21    49 1   
    51    22    30 1   
    52    22    52 1   
    53    23    24 ar  
    54    23    53 1   
    55    24    54 1   
    56    25    27 2   
    57    25    28 1   
    58    26    55 1   
    59    26    56 1   
    60    27    57 1   
    61    29    58 1   
    62    30    59 1   
    63    50    60 1   
    64    51    60 1   
@<TRIPOS>SUBSTRUCTURE
     1 EC4         1 TEMP              0 ****  ****    0 ROOT
