@<TRIPOS>MOLECULE
EC4
   60    64     1     0     0
SMALL
No Charge or Current Charge


@<TRIPOS>ATOM
      1 N1           5.9890    -2.4230     0.8330 na         1 EC4      -0.217700
      2 N3          -3.1630     0.3630    -0.5940 n3         1 EC4      -0.726600
      3 C4           6.7370    -1.3720     0.3380 ca         1 EC4      -0.041200
      4 C5           8.0250    -1.4210    -0.2140 ca         1 EC4      -0.121000
      5 C6           8.6060    -0.2120    -0.6490 ca         1 EC4       0.141000
      6 C7           7.9030     1.0080    -0.5230 ca         1 EC4      -0.130000
      7 C8           6.6090     1.0280     0.0380 ca         1 EC4      -0.057000
      8 C10          1.4420     1.5630     0.6710 c          1 EC4       0.604100
      9 C13         -2.1890     1.3310    -1.1610 c6         1 EC4       0.169300
     10 C15         -4.8790    -1.3820    -1.1290 cc         1 EC4      -0.140400
     11 C17         -6.8150    -2.0550    -0.1600 ca         1 EC4      -0.052200
     12 C20         -7.6910     0.4680     0.6310 ca         1 EC4       0.084000
     13 C21         -6.4650     0.3380    -0.0540 ca         1 EC4      -0.036000
     14 C22         -6.0610    -0.9490    -0.4370 ca         1 EC4      -0.081800
     15 C24         -2.0650     0.5370     1.6550 c6         1 EC4      -0.093400
     16 N            3.3160     1.0490    -1.0570 n8         1 EC4      -0.988200
     17 C            2.6380     0.6470     0.2220 c3         1 EC4       0.089500
     18 O            1.5750     2.7560     0.9210 o          1 EC4      -0.602100
     19 C1           3.6750     0.4970     1.3650 c3         1 EC4      -0.042200
     20 C11         -1.0530     1.5800     1.1240 c6         1 EC4       0.118700
     21 C12         -1.6840     2.3180    -0.0820 c6         1 EC4      -0.093400
     22 C16         -4.9880    -2.7670    -1.2340 cd         1 EC4      -0.160100
     23 C18         -8.0370    -1.9570     0.5190 ca         1 EC4      -0.125000
     24 C19         -8.4750    -0.6740     0.9170 ca         1 EC4      -0.083000
     25 C2           4.7820    -0.4830     1.0560 cc         1 EC4      -0.144400
     26 C23         -2.5740    -0.4060     0.5370 c6         1 EC4       0.169300
     27 C3           4.7710    -1.8560     1.2820 cd         1 EC4      -0.153100
     28 C9           6.0550    -0.1930     0.4550 ca         1 EC4      -0.101800
     29 N2           0.2160     0.9360     0.7510 ns         1 EC4      -0.508900
     30 N4          -6.1960    -3.1980    -0.6320 na         1 EC4      -0.219700
     31 Cl          10.2200    -0.2220    -1.3480 cl         1 EC4      -0.207000
     32 Cl1         -8.2460     2.0590     1.1360 cl         1 EC4      -0.218000
     33 H1           6.2580    -3.4020     0.8690 hn         1 EC4       0.354000
     34 H3           8.5630    -2.3600    -0.3040 ha         1 EC4       0.130000
     35 H4           8.3640     1.9340    -0.8570 ha         1 EC4       0.131000
     36 H5           6.0630     1.9620     0.1460 ha         1 EC4       0.121000
     37 H6          -1.3310     0.7980    -1.5980 h1         1 EC4       0.030950
     38 H7          -2.6560     1.9090    -1.9720 h1         1 EC4       0.030950
     39 H8          -5.8520     1.2080    -0.2740 ha         1 EC4       0.148000
     40 H9          -1.6130    -0.0520     2.4630 hc         1 EC4       0.060450
     41 H10         -2.9240     1.0580     2.0980 hc         1 EC4       0.060450
     42 H11          3.6500     2.0150    -0.9640 hn         1 EC4       0.411500
     43 H12          4.1850     0.5050    -1.1330 hn         1 EC4       0.411500
     44 H14          2.2170    -0.3540     0.0500 h1         1 EC4       0.059700
     45 H15          4.1000     1.4790     1.6030 hc         1 EC4       0.057700
     46 H16          3.1500     0.1690     2.2710 hc         1 EC4       0.057700
     47 H17         -0.8450     2.3080     1.9220 h1         1 EC4       0.075700
     48 H18         -0.9600     3.0150    -0.5240 hc         1 EC4       0.060450
     49 H19         -2.5270     2.9300     0.2650 hc         1 EC4       0.060450
     50 H20         -4.1600     0.1120    -2.4500 h1         1 EC4       0.035200
     51 H21         -2.9800    -1.1490    -2.0770 h1         1 EC4       0.035200
     52 H22         -4.2970    -3.4700    -1.6910 h4         1 EC4       0.211000
     53 H23         -8.6320    -2.8410     0.7360 ha         1 EC4       0.116000
     54 H24         -9.4180    -0.5630     1.4460 ha         1 EC4       0.126000
     55 H25         -3.3200    -1.0840     0.9740 h1         1 EC4       0.030950
     56 H26         -1.7430    -1.0320     0.1790 h1         1 EC4       0.030950
     57 H27          3.9870    -2.4680     1.7210 h4         1 EC4       0.213000
     58 H28          0.1980    -0.0470     0.5090 hn         1 EC4       0.309500
     59 H29         -6.5390    -4.1520    -0.5600 hn         1 EC4       0.352000
     60 C14         -3.7570    -0.5070    -1.6370 c3         1 EC4       0.249000
@<TRIPOS>BOND
     1     1     3 1   
     2     1    27 1   
     3     1    33 1   
     4     2     9 1   
     5     2    26 1   
     6     2    60 1   
     7     3     4 ar  
     8     3    28 ar  
     9     4     5 ar  
    10     4    34 1   
    11     5     6 ar  
    12     5    31 1   
    13     6     7 ar  
    14     6    35 1   
    15     7    28 ar  
    16     7    36 1   
    17     8    17 1   
    18     8    18 2   
    19     8    29 1   
    20     9    21 1   
    21     9    37 1   
    22     9    38 1   
    23    10    14 1   
    24    10    22 2   
    25    10    60 1   
    26    11    14 ar  
    27    11    23 ar  
    28    11    30 1   
    29    12    13 ar  
    30    12    24 ar  
    31    12    32 1   
    32    13    14 ar  
    33    13    39 1   
    34    15    20 1   
    35    15    26 1   
    36    15    40 1   
    37    15    41 1   
    38    16    17 1   
    39    16    42 1   
    40    16    43 1   
    41    17    19 1   
    42    17    44 1   
    43    19    25 1   
    44    19    45 1   
    45    19    46 1   
    46    20    21 1   
    47    20    29 1   
    48    20    47 1   
    49    21    48 1   
    50    21    49 1   
    51    22    30 1   
    52    22    52 1   
    53    23    24 ar  
    54    23    53 1   
    55    24    54 1   
    56    25    27 2   
    57    25    28 1   
    58    26    55 1   
    59    26    56 1   
    60    27    57 1   
    61    29    58 1   
    62    30    59 1   
    63    50    60 1   
    64    51    60 1   
@<TRIPOS>SUBSTRUCTURE
     1 EC4         1 TEMP              0 ****  ****    0 ROOT
