@<TRIPOS>MOLECULE
EC5
   58    62     1     0     0
SMALL
bcc


@<TRIPOS>ATOM
      1 O26          1.0860    -2.7980     1.4210 o          1 EC5      -0.626500
      2 C26          0.7560    -1.7100     0.9540 c          1 EC5       0.691700
      3 N27          1.4050    -1.1940    -0.1540 n          1 EC5      -0.298000
      4 C28          2.7200    -1.7750    -0.4720 c3         1 EC5      -0.045300
      5 C29          3.7050    -1.5560     0.6790 c3         1 EC5      -0.034100
      6 C6           3.7060    -0.1030     1.0710 ca         1 EC5      -0.065300
      7 C5           3.0580     0.3320     2.2220 ca         1 EC5      -0.125000
      8 C4           2.9650     1.6860     2.5200 ca         1 EC5      -0.136000
      9 C3           3.5280     2.6280     1.6700 ca         1 EC5      -0.147000
     10 C2           4.1900     2.2050     0.5240 ca         1 EC5      -0.136000
     11 C1           4.2730     0.8520     0.2280 ca         1 EC5      -0.125000
     12 C21          2.6070    -3.2070    -1.0240 c          1 EC5       0.951600
     13 O23          3.3550    -4.0790    -0.5840 o          1 EC5      -0.788800
     14 O22          1.7820    -3.3390    -1.9720 o          1 EC5      -0.788800
     15 C25         -0.2670    -0.8720     1.5060 cc         1 EC5      -0.286200
     16 C24         -0.6220     0.3260     0.9700 cd         1 EC5       0.019800
     17 C23          0.0210     0.7690    -0.2290 cd         1 EC5      -0.146200
     18 C18         -0.2860     2.0850    -0.8520 cx         1 EC5      -0.039500
     19 C20          0.8230     2.9760    -1.3270 cx         1 EC5      -0.136900
     20 C19          0.0640     3.3390    -0.0960 cx         1 EC5      -0.136900
     21 C22          0.9570    -0.0580    -0.7840 cc         1 EC5       0.164200
     22 S30          1.4900     0.1490    -2.4660 ss         1 EC5      -0.019800
     23 O56          0.8440    -1.2360    -3.0930 oh         1 EC5      -0.598800
     24 C17         -1.7170     1.1350     1.6290 c3         1 EC5       0.006100
     25 C16         -2.9830     1.2760     0.8120 ca         1 EC5      -0.040300
     26 C7          -3.3190     2.4980     0.2860 ca         1 EC5      -0.135000
     27 C8          -4.4700     2.6820    -0.5040 ca         1 EC5      -0.128000
     28 C9          -5.2970     1.6270    -0.7650 ca         1 EC5      -0.125000
     29 C10         -5.0180     0.3540    -0.2180 ca         1 EC5      -0.035000
     30 C15         -3.8620     0.1720     0.5920 ca         1 EC5      -0.021000
     31 C11         -5.8870    -0.7390    -0.4500 ca         1 EC5      -0.127000
     32 C12         -5.6440    -1.9620     0.1100 ca         1 EC5      -0.124000
     33 C13         -4.5190    -2.1400     0.9390 ca         1 EC5      -0.128000
     34 C14         -3.6550    -1.1040     1.1700 ca         1 EC5      -0.101000
     35 H25         -0.7430    -1.2330     2.4100 ha         1 EC5       0.134000
     36 H291         3.4780    -2.1920     1.5320 hc         1 EC5       0.073200
     37 H292         4.6910    -1.8490     0.3130 hc         1 EC5       0.073200
     38 HA           2.6110    -0.3940     2.8920 ha         1 EC5       0.134000
     39 HB           4.7820     0.5350    -0.6750 ha         1 EC5       0.134000
     40 HC           2.4520     2.0060     3.4180 ha         1 EC5       0.117000
     41 HD           3.4540     3.6830     1.9000 ha         1 EC5       0.115000
     42 HE           4.6390     2.9300    -0.1430 ha         1 EC5       0.117000
     43 H171        -1.9470     0.6760     2.5940 hc         1 EC5       0.050700
     44 H172        -1.3350     2.1330     1.8510 hc         1 EC5       0.050700
     45 H18         -1.2040     2.1330    -1.4300 hc         1 EC5       0.085700
     46 H201         1.8470     2.6470    -1.1900 hc         1 EC5       0.066450
     47 H202         0.6540     3.5430    -2.2330 hc         1 EC5       0.066450
     48 H191        -0.6290     4.1700    -0.1370 hc         1 EC5       0.066450
     49 H192         0.5740     3.2280     0.8530 hc         1 EC5       0.066450
     50 H56          1.2660    -2.0620    -2.6680 ho         1 EC5       0.510000
     51 H7          -2.6760     3.3490     0.4700 ha         1 EC5       0.128000
     52 H8          -4.6880     3.6630    -0.9050 ha         1 EC5       0.122000
     53 H9          -6.1790     1.7550    -1.3820 ha         1 EC5       0.122000
     54 H11         -6.7560    -0.5860    -1.0780 ha         1 EC5       0.121000
     55 H14         -2.8100    -1.2700     1.8210 ha         1 EC5       0.143000
     56 H12         -6.3160    -2.7900    -0.0730 ha         1 EC5       0.124000
     57 H13         -4.3400    -3.1030     1.4000 ha         1 EC5       0.132000
     58 H28          3.1070    -1.1840    -1.3030 h1         1 EC5       0.059700
@<TRIPOS>BOND
     1     1     2 2   
     2     2     3 1   
     3     2    15 1   
     4     3     4 1   
     5     3    21 1   
     6     4     5 1   
     7     4    12 1   
     8     4    58 1   
     9     5     6 1   
    10     5    36 1   
    11     5    37 1   
    12     6     7 ar  
    13     6    11 ar  
    14     7     8 ar  
    15     7    38 1   
    16     8     9 ar  
    17     8    40 1   
    18     9    10 ar  
    19     9    41 1   
    20    10    11 ar  
    21    10    42 1   
    22    11    39 1   
    23    12    13 1   
    24    12    14 1   
    25    15    16 2   
    26    15    35 1   
    27    16    17 1   
    28    16    24 1   
    29    17    18 1   
    30    17    21 2   
    31    18    19 1   
    32    18    20 1   
    33    18    45 1   
    34    19    20 1   
    35    19    46 1   
    36    19    47 1   
    37    20    48 1   
    38    20    49 1   
    39    21    22 1   
    40    22    23 1   
    41    23    50 1   
    42    24    25 1   
    43    24    43 1   
    44    24    44 1   
    45    25    26 ar  
    46    25    30 ar  
    47    26    27 ar  
    48    26    51 1   
    49    27    28 ar  
    50    27    52 1   
    51    28    29 ar  
    52    28    53 1   
    53    29    30 ar  
    54    29    31 ar  
    55    30    34 ar  
    56    31    32 ar  
    57    31    54 1   
    58    32    33 ar  
    59    32    56 1   
    60    33    34 ar  
    61    33    57 1   
    62    34    55 1   
@<TRIPOS>SUBSTRUCTURE
     1 EC5         1 TEMP              0 ****  ****    0 ROOT
