@<TRIPOS>MOLECULE
EC5
   58    62     1     0     0
SMALL
No Charge or Current Charge


@<TRIPOS>ATOM
      1 O26          1.2300    -2.4900     2.1400 o          1 EC5      -0.551000
      2 C26          0.8400    -1.5380     1.4790 c          1 EC5       0.549200
      3 N27          1.4100    -1.1560     0.2550 n          1 EC5      -0.231000
      4 C28          2.6500    -1.8640    -0.2190 c3         1 EC5      -0.045300
      5 C29          3.8830    -1.6150     0.6920 c3         1 EC5      -0.034100
      6 C6           4.0800    -0.1280     0.9730 ca         1 EC5      -0.065300
      7 C5           3.7440     0.4100     2.2310 ca         1 EC5      -0.107000
      8 C4           3.8850     1.7880     2.4730 ca         1 EC5      -0.118000
      9 C3           4.3610     2.6350     1.4590 ca         1 EC5      -0.129000
     10 C2           4.6960     2.1050     0.2030 ca         1 EC5      -0.118000
     11 C1           4.5560     0.7270    -0.0400 ca         1 EC5      -0.107000
     12 C21          2.3990    -3.3330    -0.6340 c          1 EC5       0.741000
     13 O23          2.9900    -4.2400    -0.0630 o          1 EC5      -0.683500
     14 O22          1.6750    -3.4980    -1.6090 o          1 EC5      -0.683500
     15 C25         -0.2660    -0.6960     1.9330 cc         1 EC5      -0.336200
     16 C24         -0.7840     0.3950     1.2590 cd         1 EC5       0.019800
     17 C23         -0.1840     0.7090    -0.0310 cd         1 EC5      -0.146200
     18 C18         -0.6660     1.9040    -0.8000 cx         1 EC5      -0.039500
     19 C20          0.3160     2.9220    -1.3540 cx         1 EC5      -0.136900
     20 C19         -0.5750     3.2970    -0.2070 cx         1 EC5      -0.136900
     21 C22          0.8160    -0.1430    -0.5010 cc         1 EC5       0.164200
     22 S30          1.1330    -0.0110    -2.2470 ss         1 EC5      -0.019800
     23 O56          0.3990    -1.4670    -2.7320 oh         1 EC5      -0.637800
     24 C17         -1.9620     1.1520     1.8630 c3         1 EC5       0.006100
     25 C16         -3.2030     1.3230     0.9700 ca         1 EC5      -0.040300
     26 C7          -3.6640     2.6340     0.7240 ca         1 EC5      -0.117000
     27 C8          -4.7650     2.8710    -0.1110 ca         1 EC5      -0.110000
     28 C9          -5.4340     1.7960    -0.7070 ca         1 EC5      -0.107000
     29 C10         -5.0180     0.4780    -0.4520 ca         1 EC5      -0.035000
     30 C15         -3.9090     0.2270     0.3970 ca         1 EC5      -0.021000
     31 C11         -5.7210    -0.5890    -1.0450 ca         1 EC5      -0.109000
     32 C12         -5.3400    -1.9150    -0.7930 ca         1 EC5      -0.106000
     33 C13         -4.2590    -2.1780     0.0610 ca         1 EC5      -0.110000
     34 C14         -3.5520    -1.1180     0.6540 ca         1 EC5      -0.083000
     35 H25         -0.6740    -1.0000     2.8890 ha         1 EC5       0.184000
     36 H291         3.7760    -2.1720     1.6300 hc         1 EC5       0.073200
     37 H292         4.7770    -2.0220     0.2040 hc         1 EC5       0.073200
     38 HA           3.3640    -0.2360     3.0190 ha         1 EC5       0.116000
     39 HB           4.8100     0.3260    -1.0190 ha         1 EC5       0.116000
     40 HC           3.6210     2.1980     3.4450 ha         1 EC5       0.099000
     41 HD           4.4670     3.7010     1.6460 ha         1 EC5       0.097000
     42 HE           5.0610     2.7600    -0.5850 ha         1 EC5       0.099000
     43 H171        -2.2850     0.6560     2.7870 hc         1 EC5       0.050700
     44 H172        -1.6040     2.1310     2.2030 hc         1 EC5       0.050700
     45 H18         -1.5400     1.6890    -1.4120 hc         1 EC5       0.085700
     46 H201         1.3730     2.7910    -1.1390 hc         1 EC5       0.066450
     47 H202         0.0990     3.3520    -2.3290 hc         1 EC5       0.066450
     48 H191        -1.3820     3.9960    -0.4130 hc         1 EC5       0.066450
     49 H192        -0.1080     3.4140     0.7680 hc         1 EC5       0.066450
     50 H56          0.9440    -2.2310    -2.3730 ho         1 EC5       0.549000
     51 H7          -3.1600     3.4840     1.1780 ha         1 EC5       0.110000
     52 H8          -5.0970     3.8900    -0.2970 ha         1 EC5       0.104000
     53 H9          -6.2850     1.9880    -1.3560 ha         1 EC5       0.104000
     54 H11         -6.5670    -0.3910    -1.6990 ha         1 EC5       0.103000
     55 H14         -2.7370    -1.3660     1.3230 ha         1 EC5       0.125000
     56 H12         -5.8860    -2.7360    -1.2510 ha         1 EC5       0.106000
     57 H13         -3.9690    -3.2060     0.2680 ha         1 EC5       0.114000
     58 H28          2.9610    -1.4030    -1.1600 h1         1 EC5       0.059700
@<TRIPOS>BOND
     1     1     2 2   
     2     2     3 1   
     3     2    15 1   
     4     3     4 1   
     5     3    21 1   
     6     4     5 1   
     7     4    12 1   
     8     4    58 1   
     9     5     6 1   
    10     5    36 1   
    11     5    37 1   
    12     6     7 ar  
    13     6    11 ar  
    14     7     8 ar  
    15     7    38 1   
    16     8     9 ar  
    17     8    40 1   
    18     9    10 ar  
    19     9    41 1   
    20    10    11 ar  
    21    10    42 1   
    22    11    39 1   
    23    12    13 1   
    24    12    14 1   
    25    15    16 2   
    26    15    35 1   
    27    16    17 1   
    28    16    24 1   
    29    17    18 1   
    30    17    21 2   
    31    18    19 1   
    32    18    20 1   
    33    18    45 1   
    34    19    20 1   
    35    19    46 1   
    36    19    47 1   
    37    20    48 1   
    38    20    49 1   
    39    21    22 1   
    40    22    23 1   
    41    23    50 1   
    42    24    25 1   
    43    24    43 1   
    44    24    44 1   
    45    25    26 ar  
    46    25    30 ar  
    47    26    27 ar  
    48    26    51 1   
    49    27    28 ar  
    50    27    52 1   
    51    28    29 ar  
    52    28    53 1   
    53    29    30 ar  
    54    29    31 ar  
    55    30    34 ar  
    56    31    32 ar  
    57    31    54 1   
    58    32    33 ar  
    59    32    56 1   
    60    33    34 ar  
    61    33    57 1   
    62    34    55 1   
@<TRIPOS>SUBSTRUCTURE
     1 EC5         1 TEMP              0 ****  ****    0 ROOT
