@<TRIPOS>MOLECULE
EC6
   91    90     1     0     0
SMALL
No Charge or Current Charge


@<TRIPOS>ATOM
      1 C27         -6.2060    -0.0520     0.0820 c3         1 EC6      -0.155400
      2 C1          -4.9660     0.0070    -0.8150 c          1 EC6       0.602100
      3 O1          -4.9900    -0.3240    -1.9920 o          1 EC6      -0.608100
      4 C28         -7.1760     1.1140    -0.2230 c3         1 EC6      -0.066400
      5 C29         -8.4360     1.1000     0.6700 c3         1 EC6      -0.078400
      6 C30         -9.4040     2.2640     0.3660 c3         1 EC6      -0.074400
      7 C31        -10.6610     2.2520     1.2570 c3         1 EC6      -0.089100
      8 N1          -3.8160     0.4270    -0.1880 ns         1 EC6      -0.494900
      9 C2          -2.4940     0.5950    -0.8390 c3         1 EC6       0.031700
     10 C5          -1.3620     0.0960     0.1090 c          1 EC6       0.592100
     11 O3          -1.5500    -0.1840     1.2870 o          1 EC6      -0.618100
     12 C3          -2.2630     2.0660    -1.3140 c3         1 EC6      -0.068700
     13 C26         -3.2480     2.4930    -2.4290 c3         1 EC6      -0.089100
     14 C4          -2.2720     3.0870    -0.1490 c3         1 EC6      -0.089100
     15 C10          2.3230     0.4210    -0.2700 c          1 EC6       0.590100
     16 C9           0.5570    -4.3970     0.4600 c          1 EC6       0.601100
     17 N2          -0.1160    -0.0120    -0.4730 ns         1 EC6      -0.494900
     18 O7           1.6110    -4.8150    -0.0050 o          1 EC6      -0.609100
     19 N5          -0.4300    -5.3000     0.9210 n          1 EC6      -0.406800
     20 C24         -0.1950    -6.7600     0.8440 c3         1 EC6       0.083800
     21 C25         -1.7150    -4.8340     1.4940 c3         1 EC6       0.083800
     22 C6           1.1220    -0.4340     0.2230 c3         1 EC6       0.022700
     23 C7           1.3970    -1.9490     0.0230 c3         1 EC6      -0.074400
     24 N3           3.4450     0.3600     0.5320 ns         1 EC6      -0.499900
     25 C11          4.7160     1.0610     0.2770 c3         1 EC6       0.078700
     26 C12          5.0150     2.0760     1.4170 c3         1 EC6      -0.086400
     27 C13          3.9450     3.1850     1.6360 c3         1 EC6      -0.059700
     28 C15          4.2670     4.0170     2.8980 c3         1 EC6      -0.091100
     29 C14          3.7760     4.1090     0.4060 c3         1 EC6      -0.091100
     30 C16          5.8940     0.0530     0.0390 c3         1 EC6       0.158300
     31 O6           6.1040    -0.7120     1.2400 oh         1 EC6      -0.657000
     32 C17          5.7050    -0.9290    -1.1730 c3         1 EC6      -0.089700
     33 C23          6.8800    -1.9470    -1.2740 c3         1 EC6      -0.084100
     34 C18          5.5110    -0.1750    -2.5260 c3         1 EC6      -0.071400
     35 C44          5.2100    -1.0760    -3.7440 c3         1 EC6      -0.086100
     36 H10         -6.7290    -0.9980    -0.1010 hc         1 EC6       0.057200
     37 H11         -5.9090     0.0130     1.1360 hc         1 EC6       0.057200
     38 H12         -6.6470     2.0660    -0.0880 hc         1 EC6       0.054200
     39 H13         -7.4800     1.0650    -1.2770 hc         1 EC6       0.054200
     40 H14         -8.9640     0.1480     0.5340 hc         1 EC6       0.035700
     41 H15         -8.1320     1.1510     1.7230 hc         1 EC6       0.035700
     42 H16         -8.8800     3.2190     0.5030 hc         1 EC6       0.039200
     43 H17         -9.7130     2.2160    -0.6860 hc         1 EC6       0.039200
     44 H18        -11.3160     3.0940     1.0050 hc         1 EC6       0.032033
     45 H19        -11.2270     1.3230     1.1170 hc         1 EC6       0.032033
     46 H20        -10.3870     2.3350     2.3160 hc         1 EC6       0.032033
     47 H9          -3.8860     0.6270     0.8030 hn         1 EC6       0.327500
     48 H1          -2.4520    -0.0610    -1.7180 h1         1 EC6       0.095700
     49 H2          -1.2630     2.1100    -1.7640 hc         1 EC6       0.056700
     50 H3          -4.2740     2.5560    -2.0500 hc         1 EC6       0.039200
     51 H4          -2.9750     3.4770    -2.8290 hc         1 EC6       0.039200
     52 H5          -3.2290     1.7760    -3.2590 hc         1 EC6       0.039200
     53 H6          -1.5200     2.8310     0.6070 hc         1 EC6       0.039200
     54 H7          -2.0440     4.0940    -0.5170 hc         1 EC6       0.039200
     55 H8          -3.2540     3.1200     0.3400 hc         1 EC6       0.039200
     56 H25         -0.6790    -2.6940     0.0510 hc         1 EC6       0.068200
     57 H26          0.0230    -2.6500     1.5940 hc         1 EC6       0.068200
     58 H21         -0.0370     0.2770    -1.4420 hn         1 EC6       0.339500
     59 H30          0.6850    -7.0240     1.4460 h1         1 EC6       0.042367
     60 H31         -1.0600    -7.3190     1.2220 h1         1 EC6       0.042367
     61 H32         -0.0160    -7.0510    -0.1990 h1         1 EC6       0.042367
     62 H27         -2.2700    -4.2530     0.7460 h1         1 EC6       0.042367
     63 H28         -2.3360    -5.6850     1.8020 h1         1 EC6       0.042367
     64 H29         -1.5270    -4.2070     2.3750 h1         1 EC6       0.042367
     65 H22          1.0140    -0.2310     1.2970 h1         1 EC6       0.084700
     66 H23          2.3350    -2.2090     0.5300 hc         1 EC6       0.065700
     67 H24          1.5550    -2.1480    -1.0450 hc         1 EC6       0.065700
     68 H33          3.3770    -0.2040     1.3690 hn         1 EC6       0.314500
     69 H34          4.6150     1.6540    -0.6390 h1         1 EC6       0.087700
     70 H35          5.1360     1.5220     2.3560 hc         1 EC6       0.053200
     71 H36          5.9820     2.5540     1.2170 hc         1 EC6       0.053200
     72 H37          2.9780     2.6990     1.8170 hc         1 EC6       0.042700
     73 H38          5.2250     4.5410     2.7880 hc         1 EC6       0.035200
     74 H39          3.4860     4.7650     3.0810 hc         1 EC6       0.035200
     75 H40          4.3280     3.3730     3.7840 hc         1 EC6       0.035200
     76 H41          4.7270     4.5870     0.1420 hc         1 EC6       0.035200
     77 H42          3.4170     3.5510    -0.4660 hc         1 EC6       0.035200
     78 H43          3.0440     4.8980     0.6130 hc         1 EC6       0.035200
     79 H44          6.7920     0.6530    -0.1660 h1         1 EC6       0.075700
     80 H45          5.5530    -1.5180     1.1630 ho         1 EC6       0.439000
     81 H46          4.7920    -1.5110    -0.9920 hc         1 EC6       0.050700
     82 H47          7.0120    -2.5120    -0.3440 hc         1 EC6       0.037367
     83 H48          6.7010    -2.6870    -2.0610 hc         1 EC6       0.037367
     84 H49          7.8230    -1.4320    -1.4950 hc         1 EC6       0.037367
     85 H50          4.6750     0.5250    -2.4440 hc         1 EC6       0.042200
     86 H51          6.4020     0.4290    -2.7400 hc         1 EC6       0.042200
     87 H52          4.9410    -0.4610    -4.6100 hc         1 EC6       0.033700
     88 H53          6.0820    -1.6780    -4.0230 hc         1 EC6       0.033700
     89 H54          4.3700    -1.7490    -3.5310 hc         1 EC6       0.033700
     90 O2           2.2820     1.0990    -1.2890 o          1 EC6      -0.608100
     91 C8           0.2760    -2.8820     0.5530 c3         1 EC6      -0.155400
@<TRIPOS>BOND
     1     1     2 1   
     2     1     4 1   
     3     1    36 1   
     4     1    37 1   
     5     2     3 2   
     6     2     8 1   
     7     4     5 1   
     8     4    38 1   
     9     4    39 1   
    10     5     6 1   
    11     5    40 1   
    12     5    41 1   
    13     6     7 1   
    14     6    42 1   
    15     6    43 1   
    16     7    44 1   
    17     7    45 1   
    18     7    46 1   
    19     8     9 1   
    20     8    47 1   
    21     9    10 1   
    22     9    12 1   
    23     9    48 1   
    24    10    11 2   
    25    10    17 1   
    26    12    13 1   
    27    12    14 1   
    28    12    49 1   
    29    13    50 1   
    30    13    51 1   
    31    13    52 1   
    32    14    53 1   
    33    14    54 1   
    34    14    55 1   
    35    15    22 1   
    36    15    24 1   
    37    15    90 2   
    38    16    18 2   
    39    16    19 1   
    40    16    91 1   
    41    17    22 1   
    42    17    58 1   
    43    19    20 1   
    44    19    21 1   
    45    20    59 1   
    46    20    60 1   
    47    20    61 1   
    48    21    62 1   
    49    21    63 1   
    50    21    64 1   
    51    22    23 1   
    52    22    65 1   
    53    23    66 1   
    54    23    67 1   
    55    23    91 1   
    56    24    25 1   
    57    24    68 1   
    58    25    26 1   
    59    25    30 1   
    60    25    69 1   
    61    26    27 1   
    62    26    70 1   
    63    26    71 1   
    64    27    28 1   
    65    27    29 1   
    66    27    72 1   
    67    28    73 1   
    68    28    74 1   
    69    28    75 1   
    70    29    76 1   
    71    29    77 1   
    72    29    78 1   
    73    30    31 1   
    74    30    32 1   
    75    30    79 1   
    76    31    80 1   
    77    32    33 1   
    78    32    34 1   
    79    32    81 1   
    80    33    82 1   
    81    33    83 1   
    82    33    84 1   
    83    34    35 1   
    84    34    85 1   
    85    34    86 1   
    86    35    87 1   
    87    35    88 1   
    88    35    89 1   
    89    56    91 1   
    90    57    91 1   
@<TRIPOS>SUBSTRUCTURE
     1 EC6         1 TEMP              0 ****  ****    0 ROOT
