@<TRIPOS>MOLECULE
EC6
   91    90     1     0     0
SMALL
bcc


@<TRIPOS>ATOM
      1 C27         -5.8640     0.5660     0.3340 c3         1 EC6      -0.155400
      2 C1          -4.6330     0.6230    -0.5460 c          1 EC6       0.669100
      3 O1          -4.6390     0.2310    -1.7050 o          1 EC6      -0.608100
      4 C28         -7.1670     0.7130    -0.4390 c3         1 EC6      -0.066400
      5 C29         -8.3830     0.6620     0.4770 c3         1 EC6      -0.078400
      6 C30         -9.7020     0.7850    -0.2760 c3         1 EC6      -0.074400
      7 C31        -10.9110     0.7500     0.6480 c3         1 EC6      -0.089100
      8 N1          -3.5350     1.1200     0.0570 ns         1 EC6      -0.561900
      9 C2          -2.2390     1.1870    -0.5600 c3         1 EC6       0.031700
     10 C5          -1.2080     0.4940     0.3280 c          1 EC6       0.659100
     11 O3          -1.3990     0.2940     1.5170 o          1 EC6      -0.618100
     12 C3          -1.8010     2.6350    -0.8760 c3         1 EC6      -0.068700
     13 C26         -2.7920     3.2990    -1.8240 c3         1 EC6      -0.089100
     14 C4          -1.6050     3.4790     0.3800 c3         1 EC6      -0.089100
     15 C10          2.3190     0.3840    -0.2380 c          1 EC6       0.657100
     16 C9           0.3230    -4.1680     0.4120 c          1 EC6       0.668100
     17 N2          -0.0770     0.1650    -0.3150 ns         1 EC6      -0.561900
     18 O7           1.3340    -4.6110    -0.1200 o          1 EC6      -0.609100
     19 N5          -0.6580    -4.9780     0.8680 n          1 EC6      -0.473800
     20 C24         -0.5740    -6.4040     0.6260 c3         1 EC6       0.083800
     21 C25         -1.9430    -4.4920     1.3290 c3         1 EC6       0.083800
     22 C6           1.1060    -0.3590     0.3200 c3         1 EC6       0.022700
     23 C7           1.2900    -1.8620     0.0610 c3         1 EC6      -0.074400
     24 N3           3.3870     0.3930     0.5730 ns         1 EC6      -0.566900
     25 C11          4.6840     0.9520     0.2280 c3         1 EC6       0.078700
     26 C12          5.1610     1.8930     1.3320 c3         1 EC6      -0.086400
     27 C13          4.2430     3.0860     1.6080 c3         1 EC6      -0.059700
     28 C15          4.8160     3.9180     2.7510 c3         1 EC6      -0.091100
     29 C14          4.0250     3.9530     0.3720 c3         1 EC6      -0.091100
     30 C16          5.7070    -0.1630    -0.0600 c3         1 EC6       0.135100
     31 O6           5.9610    -0.9100     1.1140 oh         1 EC6      -0.594800
     32 C17          5.3340    -1.0670    -1.2470 c3         1 EC6      -0.089700
     33 C23          6.2940    -2.2520    -1.3420 c3         1 EC6      -0.084100
     34 C18          5.3080    -0.2920    -2.5690 c3         1 EC6      -0.071400
     35 C44          4.6060    -1.0380    -3.6960 c3         1 EC6      -0.086100
     36 H10         -5.8500    -0.4000     0.8530 hc         1 EC6       0.057200
     37 H11         -5.8020     1.3270     1.1160 hc         1 EC6       0.057200
     38 H12         -7.1670     1.6590    -0.9880 hc         1 EC6       0.054200
     39 H13         -7.2430    -0.0790    -1.1880 hc         1 EC6       0.054200
     40 H14         -8.3760    -0.2770     1.0430 hc         1 EC6       0.035700
     41 H15         -8.3150     1.4640     1.2210 hc         1 EC6       0.035700
     42 H16         -9.7060     1.7160    -0.8510 hc         1 EC6       0.039200
     43 H17         -9.7760    -0.0250    -1.0090 hc         1 EC6       0.039200
     44 H18        -11.8460     0.8270     0.0920 hc         1 EC6       0.032033
     45 H19        -10.9430    -0.1810     1.2190 hc         1 EC6       0.032033
     46 H20        -10.8820     1.5730     1.3640 hc         1 EC6       0.032033
     47 H9          -3.6010     1.3710     1.0300 hn         1 EC6       0.327500
     48 H1          -2.3020     0.6450    -1.5060 h1         1 EC6       0.095700
     49 H2          -0.8380     2.5650    -1.3920 hc         1 EC6       0.056700
     50 H3          -3.7570     3.4570    -1.3390 hc         1 EC6       0.039200
     51 H4          -2.4180     4.2750    -2.1360 hc         1 EC6       0.039200
     52 H5          -2.9600     2.7000    -2.7200 hc         1 EC6       0.039200
     53 H6          -0.8450     3.0680     1.0460 hc         1 EC6       0.039200
     54 H7          -1.2880     4.4860     0.1090 hc         1 EC6       0.039200
     55 H8          -2.5340     3.5750     0.9470 hc         1 EC6       0.039200
     56 H25         -0.8010    -2.3730     0.1060 hc         1 EC6       0.068200
     57 H26         -0.0170    -2.4550     1.6630 hc         1 EC6       0.068200
     58 H21          0.0030     0.3680    -1.3000 hn         1 EC6       0.339500
     59 H30          0.4610    -6.7290     0.5950 h1         1 EC6       0.042367
     60 H31         -1.0760    -6.9340     1.4340 h1         1 EC6       0.042367
     61 H32         -1.0550    -6.6840    -0.3150 h1         1 EC6       0.042367
     62 H27         -2.6620    -4.3920     0.5110 h1         1 EC6       0.042367
     63 H28         -2.3520    -5.1960     2.0510 h1         1 EC6       0.042367
     64 H29         -1.8570    -3.5330     1.8310 h1         1 EC6       0.042367
     65 H22          1.0200    -0.1880     1.3950 h1         1 EC6       0.084700
     66 H23          2.2220    -2.1840     0.5310 hc         1 EC6       0.065700
     67 H24          1.4050    -2.0260    -1.0140 hc         1 EC6       0.065700
     68 H33          3.2640     0.0540     1.5150 hn         1 EC6       0.314500
     69 H34          4.5520     1.5330    -0.6830 h1         1 EC6       0.087700
     70 H35          5.3010     1.3280     2.2590 hc         1 EC6       0.053200
     71 H36          6.1520     2.2670     1.0500 hc         1 EC6       0.053200
     72 H37          3.2680     2.7030     1.9300 hc         1 EC6       0.042700
     73 H38          5.7880     4.3380     2.4800 hc         1 EC6       0.035200
     74 H39          4.1580     4.7520     3.0020 hc         1 EC6       0.035200
     75 H40          4.9530     3.3190     3.6530 hc         1 EC6       0.035200
     76 H41          4.9790     4.2900    -0.0420 hc         1 EC6       0.035200
     77 H42          3.4880     3.4250    -0.4170 hc         1 EC6       0.035200
     78 H43          3.4410     4.8400     0.6210 hc         1 EC6       0.035200
     79 H44          6.6550     0.3320    -0.3020 h1         1 EC6       0.075700
     80 H45          5.2190    -1.5050     1.2700 ho         1 EC6       0.400000
     81 H46          4.3230    -1.4620    -1.0720 hc         1 EC6       0.050700
     82 H47          6.2550    -2.8920    -0.4620 hc         1 EC6       0.037367
     83 H48          6.0610    -2.8800    -2.2020 hc         1 EC6       0.037367
     84 H49          7.3240    -1.9050    -1.4590 hc         1 EC6       0.037367
     85 H50          4.7990     0.6630    -2.4410 hc         1 EC6       0.042200
     86 H51          6.3360    -0.0510    -2.8620 hc         1 EC6       0.042200
     87 H52          4.5660    -0.4300    -4.6010 hc         1 EC6       0.033700
     88 H53          5.1040    -1.9730    -3.9570 hc         1 EC6       0.033700
     89 H54          3.5780    -1.2770    -3.4160 hc         1 EC6       0.033700
     90 O2           2.2960     0.8680    -1.3590 o          1 EC6      -0.608100
     91 C8           0.1270    -2.6760     0.6010 c3         1 EC6      -0.155400
@<TRIPOS>BOND
     1     1     2 1   
     2     1     4 1   
     3     1    36 1   
     4     1    37 1   
     5     2     3 2   
     6     2     8 1   
     7     4     5 1   
     8     4    38 1   
     9     4    39 1   
    10     5     6 1   
    11     5    40 1   
    12     5    41 1   
    13     6     7 1   
    14     6    42 1   
    15     6    43 1   
    16     7    44 1   
    17     7    45 1   
    18     7    46 1   
    19     8     9 1   
    20     8    47 1   
    21     9    10 1   
    22     9    12 1   
    23     9    48 1   
    24    10    11 2   
    25    10    17 1   
    26    12    13 1   
    27    12    14 1   
    28    12    49 1   
    29    13    50 1   
    30    13    51 1   
    31    13    52 1   
    32    14    53 1   
    33    14    54 1   
    34    14    55 1   
    35    15    22 1   
    36    15    24 1   
    37    15    90 2   
    38    16    18 2   
    39    16    19 1   
    40    16    91 1   
    41    17    22 1   
    42    17    58 1   
    43    19    20 1   
    44    19    21 1   
    45    20    59 1   
    46    20    60 1   
    47    20    61 1   
    48    21    62 1   
    49    21    63 1   
    50    21    64 1   
    51    22    23 1   
    52    22    65 1   
    53    23    66 1   
    54    23    67 1   
    55    23    91 1   
    56    24    25 1   
    57    24    68 1   
    58    25    26 1   
    59    25    30 1   
    60    25    69 1   
    61    26    27 1   
    62    26    70 1   
    63    26    71 1   
    64    27    28 1   
    65    27    29 1   
    66    27    72 1   
    67    28    73 1   
    68    28    74 1   
    69    28    75 1   
    70    29    76 1   
    71    29    77 1   
    72    29    78 1   
    73    30    31 1   
    74    30    32 1   
    75    30    79 1   
    76    31    80 1   
    77    32    33 1   
    78    32    34 1   
    79    32    81 1   
    80    33    82 1   
    81    33    83 1   
    82    33    84 1   
    83    34    35 1   
    84    34    85 1   
    85    34    86 1   
    86    35    87 1   
    87    35    88 1   
    88    35    89 1   
    89    56    91 1   
    90    57    91 1   
@<TRIPOS>SUBSTRUCTURE
     1 EC6         1 TEMP              0 ****  ****    0 ROOT
