@<TRIPOS>MOLECULE
EC7
   57    58     1     0     0
SMALL
bcc


@<TRIPOS>ATOM
      1 C4           2.1520     1.2900    -0.5120 c3         1 EC7       0.130000
      2 N1           1.5250     0.0530    -0.0580 n          1 EC7      -0.468800
      3 C8           0.1070     0.1310     0.2810 c3         1 EC7       0.098000
      4 N2          -5.1180    -0.0670     0.4320 n3         1 EC7      -0.715600
      5 C9          -0.8970    -0.2870    -0.8190 c3         1 EC7      -0.045000
      6 C10         -0.5670     0.4280    -2.1310 c3         1 EC7      -0.082600
      7 C11         -0.8510    -1.7940    -1.0720 c3         1 EC7      -0.082600
      8 C12         -2.2990     0.1730    -0.3280 c6         1 EC7      -0.053700
      9 C13         -2.7590    -0.4670     0.9850 c6         1 EC7      -0.073400
     10 C14         -4.0920     0.1070     1.4400 c6         1 EC7       0.166300
     11 O            1.6860    -1.9990     0.8650 o          1 EC7      -0.600100
     12 C3           2.2190    -1.0570     0.2930 c          1 EC7       0.674100
     13 C17         -3.4250    -0.0030    -1.3470 c6         1 EC7      -0.073400
     14 C16         -4.7330     0.5620    -0.8160 c6         1 EC7       0.166300
     15 H1           3.1660     1.0830    -0.8430 h1         1 EC7       0.052700
     16 H2           1.6250     1.6570    -1.3950 h1         1 EC7       0.052700
     17 H4          -0.0620    -0.4630     1.1780 h1         1 EC7       0.055700
     18 H5          -0.1020     1.1670     0.5560 h1         1 EC7       0.055700
     19 H7          -0.6500     1.5140    -2.0320 hc         1 EC7       0.036200
     20 H8           0.4440     0.1930    -2.4680 hc         1 EC7       0.036200
     21 H9          -1.2380     0.1170    -2.9310 hc         1 EC7       0.036200
     22 H10         -1.5890    -2.0800    -1.8230 hc         1 EC7       0.036200
     23 H11          0.1260    -2.0960    -1.4490 hc         1 EC7       0.036200
     24 H12         -1.0500    -2.3720    -0.1690 hc         1 EC7       0.036200
     25 H13         -2.2090     1.2550    -0.1450 hc         1 EC7       0.033700
     26 H14         -2.8680    -1.5480     0.8570 hc         1 EC7       0.049700
     27 H15         -2.0310    -0.3150     1.7850 hc         1 EC7       0.049700
     28 H16         -3.9590     1.1750     1.6970 h1         1 EC7       0.027200
     29 H17         -4.4140    -0.3950     2.3560 h1         1 EC7       0.027200
     30 H18         -7.1640     0.2290     0.1350 h1         1 EC7       0.028367
     31 H19         -6.6970    -0.1290     1.7970 h1         1 EC7       0.028367
     32 H20         -6.4100     1.4850     1.1300 h1         1 EC7       0.028367
     33 H22         -3.1920     0.5030    -2.2850 hc         1 EC7       0.049700
     34 H24         -5.5290     0.4020    -1.5480 h1         1 EC7       0.027200
     35 H25         -4.6300     1.6570    -0.7000 h1         1 EC7       0.027200
     36 C6           2.1820     2.3760     0.5370 cx         1 EC7      -0.157700
     37 C7           2.4940     3.7740     0.0980 cx         1 EC7      -0.126900
     38 C1           3.7200    -1.1400     0.0040 c3         1 EC7       0.103500
     39 N3           4.0370    -2.5240    -0.2920 n7         1 EC7      -0.802200
     40 C5           5.3890    -2.7320    -0.7660 c3         1 EC7       0.150100
     41 C2           1.1190     3.4340     0.5830 cx         1 EC7      -0.126900
     42 H3          -3.5660    -1.0630    -1.5800 hc         1 EC7       0.049700
     43 H6           2.5940     2.0720     1.4940 hc         1 EC7       0.083700
     44 H21          3.1330     4.3780     0.7280 hc         1 EC7       0.072950
     45 H23          2.6250     3.9490    -0.9640 hc         1 EC7       0.072950
     46 H26          3.9810    -0.5780    -0.8950 h1         1 EC7       0.065700
     47 H28          3.8650    -3.0970     0.5230 hn         1 EC7       0.377800
     48 H29          5.5300    -3.7880    -0.9950 h1         1 EC7       0.028367
     49 H30          5.5480    -2.1740    -1.6910 h1         1 EC7       0.028367
     50 H31          6.1840    -2.4390    -0.0670 h1         1 EC7       0.028367
     51 H32          0.3220     3.3890    -0.1510 hc         1 EC7       0.072950
     52 H33          0.8070     3.8010     1.5520 hc         1 EC7       0.072950
     53 C18          4.4850    -0.5430     1.1940 c3         1 EC7      -0.131100
     54 H27          4.2880     0.5220     1.3180 hc         1 EC7       0.044033
     55 H34          4.2050    -1.0460     2.1210 hc         1 EC7       0.044033
     56 H35          5.5610    -0.6560     1.0600 hc         1 EC7       0.044033
     57 C15         -6.4010     0.4080     0.8950 c3         1 EC7       0.154100
@<TRIPOS>BOND
     1     1     2 1   
     2     1    15 1   
     3     1    16 1   
     4     1    36 1   
     5     2     3 1   
     6     2    12 1   
     7     3     5 1   
     8     3    17 1   
     9     3    18 1   
    10     4    10 1   
    11     4    14 1   
    12     4    57 1   
    13     5     6 1   
    14     5     7 1   
    15     5     8 1   
    16     6    19 1   
    17     6    20 1   
    18     6    21 1   
    19     7    22 1   
    20     7    23 1   
    21     7    24 1   
    22     8     9 1   
    23     8    13 1   
    24     8    25 1   
    25     9    10 1   
    26     9    26 1   
    27     9    27 1   
    28    10    28 1   
    29    10    29 1   
    30    11    12 2   
    31    12    38 1   
    32    13    14 1   
    33    13    33 1   
    34    13    42 1   
    35    14    34 1   
    36    14    35 1   
    37    30    57 1   
    38    31    57 1   
    39    32    57 1   
    40    36    37 1   
    41    36    41 1   
    42    36    43 1   
    43    37    41 1   
    44    37    44 1   
    45    37    45 1   
    46    38    39 1   
    47    38    46 1   
    48    38    53 1   
    49    39    40 1   
    50    39    47 1   
    51    40    48 1   
    52    40    49 1   
    53    40    50 1   
    54    41    51 1   
    55    41    52 1   
    56    53    54 1   
    57    53    55 1   
    58    53    56 1   
@<TRIPOS>SUBSTRUCTURE
     1 EC7         1 TEMP              0 ****  ****    0 ROOT
