@<TRIPOS>MOLECULE
EC7
   57    58     1     0     0
SMALL
No Charge or Current Charge


@<TRIPOS>ATOM
      1 C4           2.1860     1.4640    -0.4240 c3         1 EC7       0.130000
      2 N1           1.5180     0.2140     0.0190 n          1 EC7      -0.401800
      3 C8           0.0610     0.3270     0.3240 c3         1 EC7       0.098000
      4 N2          -5.4060    -0.1990     0.3630 n3         1 EC7      -0.715600
      5 C9          -0.9270    -0.2300    -0.7640 c3         1 EC7      -0.045000
      6 C10         -0.5490     0.3830    -2.1470 c3         1 EC7      -0.082600
      7 C11         -0.7460    -1.7730    -0.8690 c3         1 EC7      -0.082600
      8 C12         -2.4200     0.1720    -0.3740 c6         1 EC7      -0.053700
      9 C13         -2.8750    -0.3370     1.0370 c6         1 EC7      -0.073400
     10 C14         -4.3440     0.1460     1.3820 c6         1 EC7       0.166300
     11 O            1.7680    -1.6730     1.3160 o          1 EC7      -0.600100
     12 C3           2.2700    -0.8900     0.5130 c          1 EC7       0.607100
     13 C17         -3.5040    -0.2350    -1.4320 c6         1 EC7      -0.073400
     14 C16         -4.9450     0.2540    -1.0010 c6         1 EC7       0.166300
     15 H1           3.1520     1.2520    -0.8930 h1         1 EC7       0.052700
     16 H2           1.5700     1.9410    -1.1970 h1         1 EC7       0.052700
     17 H4          -0.1340    -0.1680     1.2820 h1         1 EC7       0.055700
     18 H5          -0.1770     1.3860     0.4810 h1         1 EC7       0.055700
     19 H7          -0.6820     1.4720    -2.1440 hc         1 EC7       0.036200
     20 H8           0.4930     0.1680    -2.4120 hc         1 EC7       0.036200
     21 H9          -1.1580    -0.0340    -2.9560 hc         1 EC7       0.036200
     22 H10         -1.4310    -2.2100    -1.6030 hc         1 EC7       0.036200
     23 H11          0.2710    -2.0280    -1.1910 hc         1 EC7       0.036200
     24 H12         -0.9180    -2.2640     0.0950 hc         1 EC7       0.036200
     25 H13         -2.4220     1.2710    -0.3300 hc         1 EC7       0.033700
     26 H14         -2.8400    -1.4340     1.0790 hc         1 EC7       0.049700
     27 H15         -2.2060     0.0290     1.8260 hc         1 EC7       0.049700
     28 H16         -4.3130     1.2380     1.5140 h1         1 EC7       0.027200
     29 H17         -4.6230    -0.2750     2.3590 h1         1 EC7       0.027200
     30 H18         -7.4900     0.0020    -0.0190 h1         1 EC7       0.028367
     31 H19         -7.0560    -0.0770     1.7030 h1         1 EC7       0.028367
     32 H20         -6.7440     1.4100     0.7750 h1         1 EC7       0.028367
     33 H22         -3.2840     0.1970    -2.4150 hc         1 EC7       0.049700
     34 H24         -5.6640    -0.0830    -1.7610 h1         1 EC7       0.027200
     35 H25         -4.9510     1.3540    -1.0370 h1         1 EC7       0.027200
     36 C6           2.3990     2.4550     0.7170 cx         1 EC7      -0.157700
     37 C7           2.8430     3.8710     0.4290 cx         1 EC7      -0.126900
     38 C1           3.7160    -1.1670    -0.0660 c3         1 EC7       0.103500
     39 N3           4.0160    -2.6310    -0.2330 n7         1 EC7      -0.857400
     40 C5           5.2610    -3.0010    -0.9400 c3         1 EC7       0.150100
     41 C2           1.4470     3.6080     0.9430 cx         1 EC7      -0.126900
     42 H3          -3.5290    -1.3240    -1.5590 hc         1 EC7       0.049700
     43 H6           2.8210     1.9890     1.6050 hc         1 EC7       0.083700
     44 H21          3.5570     4.3270     1.1110 hc         1 EC7       0.072950
     45 H23          2.9500     4.1740    -0.6100 hc         1 EC7       0.072950
     46 H26          3.7480    -0.7020    -1.0600 h1         1 EC7       0.065700
     47 H28          4.0030    -3.0790     0.6940 hn         1 EC7       0.433000
     48 H29          5.3020    -4.0860    -1.0990 h1         1 EC7       0.028367
     49 H30          5.3120    -2.5130    -1.9230 h1         1 EC7       0.028367
     50 H31          6.1500    -2.7130    -0.3640 h1         1 EC7       0.028367
     51 H32          0.6210     3.7390     0.2480 hc         1 EC7       0.072950
     52 H33          1.2240     3.8860     1.9710 hc         1 EC7       0.072950
     53 C18          4.8040    -0.5010     0.8160 c3         1 EC7      -0.131100
     54 H27          4.5980     0.5650     0.9530 hc         1 EC7       0.044033
     55 H34          4.8410    -0.9680     1.8070 hc         1 EC7       0.044033
     56 H35          5.7960    -0.5800     0.3570 hc         1 EC7       0.044033
     57 C15         -6.7440     0.3130     0.7250 c3         1 EC7       0.154100
@<TRIPOS>BOND
     1     1     2 1   
     2     1    15 1   
     3     1    16 1   
     4     1    36 1   
     5     2     3 1   
     6     2    12 1   
     7     3     5 1   
     8     3    17 1   
     9     3    18 1   
    10     4    10 1   
    11     4    14 1   
    12     4    57 1   
    13     5     6 1   
    14     5     7 1   
    15     5     8 1   
    16     6    19 1   
    17     6    20 1   
    18     6    21 1   
    19     7    22 1   
    20     7    23 1   
    21     7    24 1   
    22     8     9 1   
    23     8    13 1   
    24     8    25 1   
    25     9    10 1   
    26     9    26 1   
    27     9    27 1   
    28    10    28 1   
    29    10    29 1   
    30    11    12 2   
    31    12    38 1   
    32    13    14 1   
    33    13    33 1   
    34    13    42 1   
    35    14    34 1   
    36    14    35 1   
    37    30    57 1   
    38    31    57 1   
    39    32    57 1   
    40    36    37 1   
    41    36    41 1   
    42    36    43 1   
    43    37    41 1   
    44    37    44 1   
    45    37    45 1   
    46    38    39 1   
    47    38    46 1   
    48    38    53 1   
    49    39    40 1   
    50    39    47 1   
    51    40    48 1   
    52    40    49 1   
    53    40    50 1   
    54    41    51 1   
    55    41    52 1   
    56    53    54 1   
    57    53    55 1   
    58    53    56 1   
@<TRIPOS>SUBSTRUCTURE
     1 EC7         1 TEMP              0 ****  ****    0 ROOT
