@<TRIPOS>MOLECULE
EC8
   36    38     1     0     0
SMALL
abcg2


@<TRIPOS>ATOM
      1 C2          -2.1660    -1.3940     0.2660 ca         1 EC8       0.232000
      2 C3          -3.2680    -0.6110    -0.0490 ca         1 EC8      -0.242300
      3 C4          -3.0880     0.7590    -0.1540 ca         1 EC8      -0.051000
      4 C5          -1.8400     1.3260     0.0490 ca         1 EC8       0.009600
      5 C10          5.9930    -2.1110     0.5710 ca         1 EC8      -0.032000
      6 C11          5.7360    -1.6330    -0.6970 ca         1 EC8      -0.170000
      7 C12          4.5520    -0.9430    -0.9670 ca         1 EC8       0.231100
      8 C15          5.0790    -1.9150     1.6070 ca         1 EC8      -0.167000
      9 C13          3.6280    -0.7220     0.0760 ca         1 EC8      -0.278600
     10 C14          3.9130    -1.2280     1.3520 ca         1 EC8      -0.032000
     11 C1          -0.9150    -0.8590     0.4690 ca         1 EC8      -0.163000
     12 C6          -0.4930     3.3410     0.1160 c          1 EC8       0.504000
     13 C16         -4.6100    -1.2380    -0.2600 c3         1 EC8       0.375300
     14 C7           0.7130     2.4710     0.4400 c          1 EC8       0.490000
     15 C8          -0.7490     0.5140     0.3580 ca         1 EC8       0.107600
     16 C9           2.4000     0.0260    -0.2290 c          1 EC8       0.636700
     17 F1          -2.3140    -2.7160     0.3790 f          1 EC8      -0.151000
     18 F2          -5.0400    -1.8730     0.8370 f          1 EC8      -0.106000
     19 F3          -5.5360    -0.3300    -0.5750 f          1 EC8      -0.106000
     20 F4          -4.5900    -2.1390    -1.2490 f          1 EC8      -0.106000
     21 N1          -1.6630     2.6940    -0.0530 ns         1 EC8      -0.385100
     22 N2           0.4880     1.1210     0.5560 n          1 EC8      -0.166600
     23 N3           1.5670     0.3280     0.8090 ns         1 EC8      -0.361500
     24 O1          -0.3530     4.5380     0.0220 o          1 EC8      -0.469000
     25 O2           1.7990     2.9650     0.5890 o          1 EC8      -0.449000
     26 O3           2.0960     0.3620    -1.3690 o          1 EC8      -0.606100
     27 H1          -3.9200     1.4070    -0.3950 ha         1 EC8       0.144000
     28 H2           6.9130    -2.6480     0.7590 ha         1 EC8       0.120000
     29 H3           6.4430    -1.7930    -1.5010 ha         1 EC8       0.138000
     30 H4           5.2780    -2.3000     2.5970 ha         1 EC8       0.123000
     31 H5           3.2130    -1.0990     2.1670 ha         1 EC8       0.103000
     32 H6          -0.0890    -1.5100     0.7170 ha         1 EC8       0.157000
     33 H7          -2.4710     3.2630    -0.2730 hn         1 EC8       0.341500
     34 H8           1.8580     0.2820     1.7750 hn         1 EC8       0.350500
     35 H9           3.4750    -0.0880    -2.2530 ho         1 EC8       0.518000
     36 O4           4.3560    -0.5200    -2.2130 oh         1 EC8      -0.536100
@<TRIPOS>BOND
     1     1     2 ar  
     2     1    11 ar  
     3     1    17 1   
     4     2     3 ar  
     5     2    13 1   
     6     3     4 ar  
     7     3    27 1   
     8     4    15 ar  
     9     4    21 1   
    10     5     6 ar  
    11     5     8 ar  
    12     5    28 1   
    13     6     7 ar  
    14     6    29 1   
    15     7     9 ar  
    16     7    36 1   
    17     8    10 ar  
    18     8    30 1   
    19     9    10 ar  
    20     9    16 1   
    21    10    31 1   
    22    11    15 ar  
    23    11    32 1   
    24    12    14 1   
    25    12    21 1   
    26    12    24 2   
    27    13    18 1   
    28    13    19 1   
    29    13    20 1   
    30    14    22 1   
    31    14    25 2   
    32    15    22 1   
    33    16    23 1   
    34    16    26 2   
    35    21    33 1   
    36    22    23 1   
    37    23    34 1   
    38    35    36 1   
@<TRIPOS>SUBSTRUCTURE
     1 EC8         1 TEMP              0 ****  ****    0 ROOT
