@<TRIPOS>MOLECULE
EC8
   36    38     1     0     0
SMALL
No Charge or Current Charge


@<TRIPOS>ATOM
      1 C2          -1.8800    -1.3720    -0.0070 ca         1 EC8       0.232000
      2 C3          -3.0900    -0.6740    -0.1930 ca         1 EC8      -0.242300
      3 C4          -3.0730     0.7380    -0.1270 ca         1 EC8      -0.051000
      4 C5          -1.8710     1.4270     0.1130 ca         1 EC8       0.009600
      5 C10          5.8510    -2.4010     0.6250 ca         1 EC8      -0.032000
      6 C11          5.4110    -2.2460    -0.6970 ca         1 EC8      -0.170000
      7 C12          4.3140    -1.4240    -0.9900 ca         1 EC8       0.231100
      8 C15          5.1850    -1.7260     1.6570 ca         1 EC8      -0.167000
      9 C13          3.6280    -0.7350     0.0400 ca         1 EC8      -0.278600
     10 C14          4.0840    -0.9000     1.3740 ca         1 EC8      -0.032000
     11 C1          -0.6810    -0.6860     0.2320 ca         1 EC8      -0.163000
     12 C6          -0.7990     3.6500     0.4750 c          1 EC8       0.504000
     13 C16         -4.3890    -1.4450    -0.4530 c3         1 EC8       0.375300
     14 C7           0.5750     2.8740     0.7010 c          1 EC8       0.490000
     15 C8          -0.6590     0.7220     0.2850 ca         1 EC8       0.107600
     16 C9           2.4430     0.1480    -0.2830 c          1 EC8       0.636700
     17 F1          -1.8550    -2.7230    -0.0520 f          1 EC8      -0.151000
     18 F2          -4.6880    -2.2760     0.5710 f          1 EC8      -0.106000
     19 F3          -5.4610    -0.6360    -0.6190 f          1 EC8      -0.106000
     20 F4          -4.3030    -2.2040    -1.5690 f          1 EC8      -0.106000
     21 N1          -1.8750     2.8360     0.1980 ns         1 EC8      -0.385100
     22 N2           0.5630     1.4620     0.5210 n          1 EC8      -0.166600
     23 N3           1.8150     0.7690     0.7830 ns         1 EC8      -0.361500
     24 O1          -0.9110     4.8700     0.5380 o          1 EC8      -0.469000
     25 O2           1.6020     3.4790     1.0090 o          1 EC8      -0.449000
     26 O3           2.0660     0.3050    -1.4390 o          1 EC8      -0.606100
     27 H1          -3.9910     1.3090    -0.2570 ha         1 EC8       0.144000
     28 H2           6.7030    -3.0400     0.8480 ha         1 EC8       0.120000
     29 H3           5.9240    -2.7670    -1.5010 ha         1 EC8       0.138000
     30 H4           5.5230    -1.8420     2.6850 ha         1 EC8       0.123000
     31 H5           3.6030    -0.3950     2.2070 ha         1 EC8       0.103000
     32 H6           0.2230    -1.2680     0.3770 ha         1 EC8       0.157000
     33 H7          -2.7600     3.3100     0.0520 hn         1 EC8       0.341500
     34 H8           2.0910     0.5770     1.7390 hn         1 EC8       0.350500
     35 H9           3.1530    -0.6820    -2.2800 ho         1 EC8       0.518000
     36 O4           3.9260    -1.3050    -2.2880 oh         1 EC8      -0.536100
@<TRIPOS>BOND
     1     1     2 ar  
     2     1    11 ar  
     3     1    17 1   
     4     2     3 ar  
     5     2    13 1   
     6     3     4 ar  
     7     3    27 1   
     8     4    15 ar  
     9     4    21 1   
    10     5     6 ar  
    11     5     8 ar  
    12     5    28 1   
    13     6     7 ar  
    14     6    29 1   
    15     7     9 ar  
    16     7    36 1   
    17     8    10 ar  
    18     8    30 1   
    19     9    10 ar  
    20     9    16 1   
    21    10    31 1   
    22    11    15 ar  
    23    11    32 1   
    24    12    14 1   
    25    12    21 1   
    26    12    24 2   
    27    13    18 1   
    28    13    19 1   
    29    13    20 1   
    30    14    22 1   
    31    14    25 2   
    32    15    22 1   
    33    16    23 1   
    34    16    26 2   
    35    21    33 1   
    36    22    23 1   
    37    23    34 1   
    38    35    36 1   
@<TRIPOS>SUBSTRUCTURE
     1 EC8         1 TEMP              0 ****  ****    0 ROOT
