@<TRIPOS>MOLECULE
EC9
   36    38     1     0     0
SMALL
No Charge or Current Charge


@<TRIPOS>ATOM
      1 C1          10.5180    -5.2160     1.1910 ca         1 EC9      -0.129000
      2 C14          8.3470    -7.9470    -1.0290 ca         1 EC9       0.610900
      3 C15          7.1710    -8.4340    -0.4440 ca         1 EC9      -0.224000
      4 C16          6.1500    -8.9230    -1.2730 ca         1 EC9      -0.037000
      5 C17          6.3640    -8.8880    -2.6580 ca         1 EC9      -0.208000
      6 C18          7.5720    -8.3690    -3.1520 ca         1 EC9       0.385900
      7 C19         13.6310    -9.0850    -3.2000 c          1 EC9       0.615100
      8 C2          11.1110    -4.1540     1.8870 ca         1 EC9      -0.079000
      9 C21         14.8460    -9.3420    -4.0830 c3         1 EC9      -0.182100
     10 C3          12.4440    -3.8100     1.6370 ca         1 EC9      -0.214000
     11 C4          13.1920    -4.5250     0.6860 ca         1 EC9       0.159100
     12 C5          12.6100    -5.6130    -0.0350 ca         1 EC9       0.306000
     13 C6          11.2560    -5.9560     0.2320 ca         1 EC9      -0.111000
     14 C7          10.6730    -7.0280    -0.4860 ca         1 EC9       0.370000
     15 C8          11.4550    -7.7220    -1.4090 ca         1 EC9      -0.216000
     16 C9          12.7740    -7.3210    -1.6100 ca         1 EC9       0.514900
     17 N10         13.3400    -6.2990    -0.9540 nb         1 EC9      -0.739000
     18 N12         13.6840    -7.9050    -2.4980 ns         1 EC9      -0.328900
     19 N13          9.3540    -7.4320    -0.2440 nu         1 EC9      -0.938900
     20 N22          8.5530    -7.8980    -2.3490 nb         1 EC9      -0.713000
     21 O11         14.4960    -4.1430     0.4780 oh         1 EC9      -0.500100
     22 O20         12.7060    -9.8810    -3.1300 o          1 EC9      -0.569100
     23 H1           9.4770    -5.4450     1.4050 ha         1 EC9       0.103000
     24 H2           7.0510    -8.4380     0.6350 ha         1 EC9       0.120000
     25 H3           5.2240    -9.3150    -0.8550 ha         1 EC9       0.118000
     26 H4           5.6070    -9.2530    -3.3480 ha         1 EC9       0.127000
     27 H5           7.7600    -8.3260    -4.2240 h4         1 EC9       0.027100
     28 H6          10.5320    -3.5950     2.6200 ha         1 EC9       0.112000
     29 H7          14.7800   -10.2920    -4.6260 hc         1 EC9       0.064367
     30 H8          14.9770    -8.4940    -4.7640 hc         1 EC9       0.064367
     31 H9          15.7520    -9.2890    -3.4690 hc         1 EC9       0.064367
     32 H10         12.8920    -2.9830     2.1830 ha         1 EC9       0.115000
     33 H11         11.0390    -8.5570    -1.9520 ha         1 EC9       0.192000
     34 H12         14.5260    -7.3620    -2.6280 hn         1 EC9       0.165000
     35 H13          9.0290    -7.2170     0.6920 hn         1 EC9       0.497000
     36 H14         14.6940    -3.3860     1.0670 ho         1 EC9       0.457000
@<TRIPOS>BOND
     1     1     8 ar  
     2     1    13 ar  
     3     1    23 1   
     4     2     3 ar  
     5     2    19 1   
     6     2    20 ar  
     7     3     4 ar  
     8     3    24 1   
     9     4     5 ar  
    10     4    25 1   
    11     5     6 ar  
    12     5    26 1   
    13     6    20 ar  
    14     6    27 1   
    15     7     9 1   
    16     7    18 1   
    17     7    22 2   
    18     8    10 ar  
    19     8    28 1   
    20     9    29 1   
    21     9    30 1   
    22     9    31 1   
    23    10    11 ar  
    24    10    32 1   
    25    11    12 ar  
    26    11    21 1   
    27    12    13 ar  
    28    12    17 ar  
    29    13    14 ar  
    30    14    15 ar  
    31    14    19 1   
    32    15    16 ar  
    33    15    33 1   
    34    16    17 ar  
    35    16    18 1   
    36    18    34 1   
    37    19    35 1   
    38    21    36 1   
@<TRIPOS>SUBSTRUCTURE
     1 EC9         1 TEMP              0 ****  ****    0 ROOT
