@<TRIPOS>MOLECULE
EC9
   36    38     1     0     0
SMALL
abcg2


@<TRIPOS>ATOM
      1 C1          10.5240    -5.1680     1.2730 ca         1 EC9      -0.129000
      2 C14          8.3830    -7.8790    -1.1490 ca         1 EC9       0.610900
      3 C15          7.0560    -7.9370    -0.6920 ca         1 EC9      -0.224000
      4 C16          6.1550    -8.7030    -1.3970 ca         1 EC9      -0.037000
      5 C17          6.5820    -9.3940    -2.5300 ca         1 EC9      -0.208000
      6 C18          7.9080    -9.2700    -2.8910 ca         1 EC9       0.385900
      7 C19         13.4150    -8.7660    -3.4240 c          1 EC9       0.615100
      8 C2          11.1870    -4.2600     2.0530 ca         1 EC9      -0.079000
      9 C21         14.6420    -9.1030    -4.2320 c3         1 EC9      -0.182100
     10 C3          12.5600    -4.0270     1.8840 ca         1 EC9      -0.214000
     11 C4          13.2630    -4.7130     0.9250 ca         1 EC9       0.159100
     12 C5          12.6030    -5.6680     0.0970 ca         1 EC9       0.306000
     13 C6          11.2200    -5.8920     0.2790 ca         1 EC9      -0.111000
     14 C7          10.6080    -6.8610    -0.5920 ca         1 EC9       0.370000
     15 C8          11.3900    -7.5030    -1.5290 ca         1 EC9      -0.216000
     16 C9          12.7600    -7.1850    -1.5930 ca         1 EC9       0.514900
     17 N10         13.3510    -6.3070    -0.8240 nb         1 EC9      -0.739000
     18 N12         13.6290    -7.7850    -2.5020 ns         1 EC9      -0.328900
     19 N13          9.2670    -7.0950    -0.4330 nu         1 EC9      -0.938900
     20 N22          8.7910    -8.5320    -2.2230 nb         1 EC9      -0.713000
     21 O11         14.5760    -4.5410     0.7040 oh         1 EC9      -0.500100
     22 O20         12.3410    -9.3080    -3.6060 o          1 EC9      -0.569100
     23 H1           9.4650    -5.3030     1.4460 ha         1 EC9       0.103000
     24 H2           6.7510    -7.3940     0.1940 ha         1 EC9       0.120000
     25 H3           5.1260    -8.7650    -1.0690 ha         1 EC9       0.118000
     26 H4           5.9070   -10.0080    -3.1080 ha         1 EC9       0.127000
     27 H5           8.2910    -9.7870    -3.7640 h4         1 EC9       0.027100
     28 H6          10.6480    -3.7090     2.8130 ha         1 EC9       0.112000
     29 H7          14.5200   -10.0720    -4.7090 hc         1 EC9       0.064367
     30 H8          14.7800    -8.3530    -5.0130 hc         1 EC9       0.064367
     31 H9          15.5470    -9.1160    -3.6260 hc         1 EC9       0.064367
     32 H10         13.0630    -3.3020     2.5130 ha         1 EC9       0.115000
     33 H11         10.9580    -8.2260    -2.1950 ha         1 EC9       0.192000
     34 H12         14.5680    -7.4190    -2.4350 hn         1 EC9       0.165000
     35 H13          8.8310    -6.6220     0.3400 hn         1 EC9       0.497000
     36 H14         14.9220    -3.8710     1.3050 ho         1 EC9       0.457000
@<TRIPOS>BOND
     1     1     8 ar  
     2     1    13 ar  
     3     1    23 1   
     4     2     3 ar  
     5     2    19 1   
     6     2    20 ar  
     7     3     4 ar  
     8     3    24 1   
     9     4     5 ar  
    10     4    25 1   
    11     5     6 ar  
    12     5    26 1   
    13     6    20 ar  
    14     6    27 1   
    15     7     9 1   
    16     7    18 1   
    17     7    22 2   
    18     8    10 ar  
    19     8    28 1   
    20     9    29 1   
    21     9    30 1   
    22     9    31 1   
    23    10    11 ar  
    24    10    32 1   
    25    11    12 ar  
    26    11    21 1   
    27    12    13 ar  
    28    12    17 ar  
    29    13    14 ar  
    30    14    15 ar  
    31    14    19 1   
    32    15    16 ar  
    33    15    33 1   
    34    16    17 ar  
    35    16    18 1   
    36    18    34 1   
    37    19    35 1   
    38    21    36 1   
@<TRIPOS>SUBSTRUCTURE
     1 EC9         1 TEMP              0 ****  ****    0 ROOT
