@<TRIPOS>MOLECULE
ECA
   69    72     1     0     0
SMALL
bcc


@<TRIPOS>ATOM
      1 O20          7.8230    -3.1680    -2.6760 oh         1 ECA      -0.481767
      2 C17          7.1560    -2.0020    -2.5660 ca         1 ECA       0.100100
      3 C18          6.6610    -1.5760    -1.3200 ca         1 ECA       0.158767
      4 O19          6.8990    -2.3840    -0.2820 oh         1 ECA      -0.522433
      5 C16          6.9620    -1.2200    -3.6860 ca         1 ECA      -0.134667
      6 C15          6.2770    -0.0100    -3.5880 ca         1 ECA      -0.144000
      7 C14          5.7850     0.4130    -2.3730 ca         1 ECA      -0.101000
      8 C13          5.9620    -0.3660    -1.2210 ca         1 ECA      -0.239267
      9 C11          5.4550     0.0250     0.1190 c          1 ECA       0.693700
     10 O12          5.7100    -0.6780     1.1110 o          1 ECA      -0.643100
     11 N10          4.7310     1.1410     0.2230 ns         1 ECA      -0.548900
     12 C9           4.1920     1.6510     1.4670 c3         1 ECA       0.150967
     13 C2           2.7180     1.3670     1.6230 ca         1 ECA      -0.100633
     14 C1           2.2590     0.0620     1.7670 ca         1 ECA      -0.100333
     15 C3           1.8000     2.4100     1.5940 ca         1 ECA      -0.100333
     16 C4           0.4400     2.1630     1.7350 ca         1 ECA      -0.100633
     17 C8          -0.5420     3.3120     1.7020 c3         1 ECA       0.150967
     18 N21         -1.8620     2.9220     1.2640 ns         1 ECA      -0.548900
     19 C22         -2.0920     2.4790     0.0240 c          1 ECA       0.693700
     20 O23         -1.1950     2.5190    -0.8330 o          1 ECA      -0.643100
     21 C24         -3.4290     1.9380    -0.3060 ca         1 ECA      -0.239267
     22 C25         -4.4740     1.8440     0.6250 ca         1 ECA      -0.101000
     23 C26         -5.6970     1.3370     0.2520 ca         1 ECA      -0.144000
     24 C27         -5.9120     0.9110    -1.0570 ca         1 ECA      -0.134667
     25 C28         -4.8970     0.9800    -1.9880 ca         1 ECA       0.100100
     26 O31         -5.1210     0.5720    -3.2520 oh         1 ECA      -0.481767
     27 C29         -3.6420     1.4900    -1.6150 ca         1 ECA       0.158767
     28 O30         -2.7080     1.5230    -2.5720 oh         1 ECA      -0.522433
     29 C5           0.0050     0.8570     1.9090 ca         1 ECA      -0.100333
     30 C6           0.9010    -0.2020     1.9040 ca         1 ECA      -0.100633
     31 C7           0.4430    -1.6360     2.0480 c3         1 ECA       0.150967
     32 N32         -0.9840    -1.8190     1.9500 ns         1 ECA      -0.548900
     33 C33         -1.6440    -1.7400     0.7870 c          1 ECA       0.693700
     34 O34         -1.0300    -1.5550    -0.2740 o          1 ECA      -0.643100
     35 C35         -3.1180    -1.8960     0.7980 ca         1 ECA      -0.239267
     36 C36         -3.8690    -1.9520     1.9820 ca         1 ECA      -0.101000
     37 C37         -5.2310    -2.1330     1.9380 ca         1 ECA      -0.144000
     38 C38         -5.8760    -2.2680     0.7090 ca         1 ECA      -0.134667
     39 C39         -5.1630    -2.2040    -0.4700 ca         1 ECA       0.100100
     40 O42         -5.7200    -2.3260    -1.6900 oh         1 ECA      -0.481767
     41 C40         -3.7720    -1.9920    -0.4380 ca         1 ECA       0.158767
     42 O41         -3.1470    -1.9070    -1.6110 oh         1 ECA      -0.522433
     43 H20          7.8960    -3.5950    -1.8140 ho         1 ECA       0.438667
     44 H19          6.5110    -1.9320     0.5140 ho         1 ECA       0.489667
     45 H16          7.3490    -1.5550    -4.6400 ha         1 ECA       0.142000
     46 H15          6.1360     0.5980    -4.4710 ha         1 ECA       0.135667
     47 H14          5.2690     1.3630    -2.3350 ha         1 ECA       0.120667
     48 H10          4.4830     1.6510    -0.6090 hn         1 ECA       0.323167
     49 H9C1         4.7550     1.2180     2.2920 h1         1 ECA       0.064033
     50 H9C2         4.3640     2.7270     1.4900 h1         1 ECA       0.064033
     51 H1           2.9670    -0.7600     1.7670 ha         1 ECA       0.134333
     52 H3           2.1490     3.4260     1.4460 ha         1 ECA       0.134333
     53 H8C1        -0.6540     3.7340     2.7010 h1         1 ECA       0.064033
     54 H8C2        -0.1530     4.1120     1.0690 h1         1 ECA       0.064033
     55 H21         -2.5850     2.8740     1.9600 hn         1 ECA       0.323167
     56 H25         -4.3400     2.1580     1.6510 ha         1 ECA       0.120667
     57 H26         -6.4940     1.2580     0.9780 ha         1 ECA       0.135667
     58 H27         -6.8730     0.5110    -1.3530 ha         1 ECA       0.142000
     59 H31         -4.3080     0.6340    -3.7680 ho         1 ECA       0.438667
     60 H30         -1.8950     1.9080    -2.1500 ho         1 ECA       0.489667
     61 H5          -1.0530     0.6620     2.0320 ha         1 ECA       0.134333
     62 H7C1         0.9480    -2.2520     1.3010 h1         1 ECA       0.064033
     63 H7C2         0.7440    -2.0220     3.0220 h1         1 ECA       0.064033
     64 H32         -1.4860    -2.0050     2.8000 hn         1 ECA       0.323167
     65 H36         -3.3970    -1.8360     2.9490 ha         1 ECA       0.120667
     66 H37         -5.8080    -2.1700     2.8520 ha         1 ECA       0.135667
     67 H38         -6.9500    -2.4140     0.6760 ha         1 ECA       0.142000
     68 H42         -6.6740    -2.4220    -1.6070 ho         1 ECA       0.438667
     69 H41         -2.2000    -1.7120    -1.4030 ho         1 ECA       0.489667
@<TRIPOS>BOND
     1     1     2 1   
     2     1    43 1   
     3     2     3 ar  
     4     2     5 ar  
     5     3     4 1   
     6     3     8 ar  
     7     4    44 1   
     8     5     6 ar  
     9     5    45 1   
    10     6     7 ar  
    11     6    46 1   
    12     7     8 ar  
    13     7    47 1   
    14     8     9 1   
    15     9    10 2   
    16     9    11 1   
    17    11    12 1   
    18    11    48 1   
    19    12    13 1   
    20    12    49 1   
    21    12    50 1   
    22    13    14 ar  
    23    13    15 ar  
    24    14    30 ar  
    25    14    51 1   
    26    15    16 ar  
    27    15    52 1   
    28    16    17 1   
    29    16    29 ar  
    30    17    18 1   
    31    17    53 1   
    32    17    54 1   
    33    18    19 1   
    34    18    55 1   
    35    19    20 2   
    36    19    21 1   
    37    21    22 ar  
    38    21    27 ar  
    39    22    23 ar  
    40    22    56 1   
    41    23    24 ar  
    42    23    57 1   
    43    24    25 ar  
    44    24    58 1   
    45    25    26 1   
    46    25    27 ar  
    47    26    59 1   
    48    27    28 1   
    49    28    60 1   
    50    29    30 ar  
    51    29    61 1   
    52    30    31 1   
    53    31    32 1   
    54    31    62 1   
    55    31    63 1   
    56    32    33 1   
    57    32    64 1   
    58    33    34 2   
    59    33    35 1   
    60    35    36 ar  
    61    35    41 ar  
    62    36    37 ar  
    63    36    65 1   
    64    37    38 ar  
    65    37    66 1   
    66    38    39 ar  
    67    38    67 1   
    68    39    40 1   
    69    39    41 ar  
    70    40    68 1   
    71    41    42 1   
    72    42    69 1   
@<TRIPOS>SUBSTRUCTURE
     1 ECA         1 TEMP              0 ****  ****    0 ROOT
