@<TRIPOS>MOLECULE
ECA
   69    72     1     0     0
SMALL
No Charge or Current Charge


@<TRIPOS>ATOM
      1 O20          6.3320    -3.3660    -3.4520 oh         1 ECA      -0.520767
      2 C17          5.8260    -2.1390    -3.1220 ca         1 ECA       0.100100
      3 C18          5.6640    -1.7880    -1.7630 ca         1 ECA       0.158767
      4 O19          6.0210    -2.6900    -0.7990 oh         1 ECA      -0.561433
      5 C16          5.4690    -1.2370    -4.1320 ca         1 ECA      -0.116667
      6 C15          4.9500     0.0210    -3.7890 ca         1 ECA      -0.126000
      7 C14          4.7860     0.3780    -2.4390 ca         1 ECA      -0.083000
      8 C13          5.1410    -0.5220    -1.4000 ca         1 ECA      -0.239267
      9 C11          4.9710    -0.1550     0.0600 c          1 ECA       0.626700
     10 O12          5.2730    -0.9340     0.9560 o          1 ECA      -0.643100
     11 N10          4.4640     1.0930     0.3330 ns         1 ECA      -0.481900
     12 C9           4.1900     1.6080     1.6750 c3         1 ECA       0.150967
     13 C2           2.7180     1.4610     2.0310 ca         1 ECA      -0.100633
     14 C1           2.2300     0.2340     2.5180 ca         1 ECA      -0.082333
     15 C3           1.8310     2.5380     1.8450 ca         1 ECA      -0.082333
     16 C4           0.4660     2.4020     2.1620 ca         1 ECA      -0.100633
     17 C8          -0.5010     3.5570     1.9140 c3         1 ECA       0.150967
     18 N21         -1.7770     3.1010     1.3560 ns         1 ECA      -0.481900
     19 C22         -1.9360     2.5880     0.0910 c          1 ECA       0.626700
     20 O23         -1.0160     2.5840    -0.7180 o          1 ECA      -0.643100
     21 C24         -3.2990     2.0260    -0.2560 ca         1 ECA      -0.239267
     22 C25         -4.3660     2.0310     0.6800 ca         1 ECA      -0.083000
     23 C26         -5.6260     1.5090     0.3390 ca         1 ECA      -0.126000
     24 C27         -5.8490     0.9700    -0.9370 ca         1 ECA      -0.116667
     25 C28         -4.8070     0.9470    -1.8720 ca         1 ECA       0.100100
     26 O31         -5.0180     0.4210    -3.1160 oh         1 ECA      -0.520767
     27 C29         -3.5380     1.4700    -1.5360 ca         1 ECA       0.158767
     28 O30         -2.5410     1.4380    -2.4720 oh         1 ECA      -0.561433
     29 C5          -0.0030     1.1790     2.6790 ca         1 ECA      -0.082333
     30 C6           0.8680     0.0840     2.8390 ca         1 ECA      -0.100633
     31 C7           0.3270    -1.2620     3.3080 c3         1 ECA       0.150967
     32 N32         -0.8960    -1.6230     2.5880 ns         1 ECA      -0.481900
     33 C33         -0.9350    -1.9990     1.2670 c          1 ECA       0.626700
     34 O34          0.0920    -2.2260     0.6380 o          1 ECA      -0.643100
     35 C35         -2.3030    -2.1080     0.6240 ca         1 ECA      -0.239267
     36 C36         -3.4830    -1.7950     1.3470 ca         1 ECA      -0.083000
     37 C37         -4.7450    -1.8920     0.7400 ca         1 ECA      -0.126000
     38 C38         -4.8620    -2.2970    -0.5970 ca         1 ECA      -0.116667
     39 C39         -3.7110    -2.6060    -1.3390 ca         1 ECA       0.100100
     40 O42         -3.8450    -2.9980    -2.6480 oh         1 ECA      -0.520767
     41 C40         -2.4320    -2.5120    -0.7300 ca         1 ECA       0.158767
     42 O41         -1.3080    -2.8120    -1.4510 oh         1 ECA      -0.561433
     43 H20          6.5110    -3.8290    -2.6030 ho         1 ECA       0.477667
     44 H19          5.8230    -2.2430     0.0690 ho         1 ECA       0.528667
     45 H16          5.5950    -1.5090    -5.1770 ha         1 ECA       0.124000
     46 H15          4.6720     0.7230    -4.5720 ha         1 ECA       0.117667
     47 H14          4.3790     1.3620    -2.2220 ha         1 ECA       0.102667
     48 H10          4.2320     1.6740    -0.4600 hn         1 ECA       0.323167
     49 H9C1         4.8060     1.0800     2.4140 h1         1 ECA       0.064033
     50 H9C2         4.4760     2.6680     1.7080 h1         1 ECA       0.064033
     51 H1           2.9100    -0.6080     2.6350 ha         1 ECA       0.116333
     52 H3           2.2000     3.4800     1.4450 ha         1 ECA       0.116333
     53 H8C1        -0.6950     4.0760     2.8620 h1         1 ECA       0.064033
     54 H8C2        -0.0530     4.2810     1.2210 h1         1 ECA       0.064033
     55 H21         -2.5880     3.0880     1.9600 hn         1 ECA       0.323167
     56 H25         -4.2410     2.4380     1.6800 ha         1 ECA       0.102667
     57 H26         -6.4330     1.5230     1.0690 ha         1 ECA       0.117667
     58 H27         -6.8250     0.5670    -1.1970 ha         1 ECA       0.124000
     59 H31         -4.1630     0.5020    -3.5960 ho         1 ECA       0.477667
     60 H30         -1.7500     1.8510    -2.0270 ho         1 ECA       0.528667
     61 H5          -1.0550     1.0670     2.9300 ha         1 ECA       0.116333
     62 H7C1         1.0780    -2.0490     3.1560 h1         1 ECA       0.064033
     63 H7C2         0.1050    -1.2110     4.3820 h1         1 ECA       0.064033
     64 H32         -1.7840    -1.4820     3.0490 hn         1 ECA       0.323167
     65 H36         -3.4450    -1.4690     2.3830 ha         1 ECA       0.102667
     66 H37         -5.6380    -1.6450     1.3100 ha         1 ECA       0.117667
     67 H38         -5.8470    -2.3630    -1.0510 ha         1 ECA       0.124000
     68 H42         -4.7930    -2.9540    -2.8950 ho         1 ECA       0.477667
     69 H41         -0.5460    -2.6530    -0.8290 ho         1 ECA       0.528667
@<TRIPOS>BOND
     1     1     2 1   
     2     1    43 1   
     3     2     3 ar  
     4     2     5 ar  
     5     3     4 1   
     6     3     8 ar  
     7     4    44 1   
     8     5     6 ar  
     9     5    45 1   
    10     6     7 ar  
    11     6    46 1   
    12     7     8 ar  
    13     7    47 1   
    14     8     9 1   
    15     9    10 2   
    16     9    11 1   
    17    11    12 1   
    18    11    48 1   
    19    12    13 1   
    20    12    49 1   
    21    12    50 1   
    22    13    14 ar  
    23    13    15 ar  
    24    14    30 ar  
    25    14    51 1   
    26    15    16 ar  
    27    15    52 1   
    28    16    17 1   
    29    16    29 ar  
    30    17    18 1   
    31    17    53 1   
    32    17    54 1   
    33    18    19 1   
    34    18    55 1   
    35    19    20 2   
    36    19    21 1   
    37    21    22 ar  
    38    21    27 ar  
    39    22    23 ar  
    40    22    56 1   
    41    23    24 ar  
    42    23    57 1   
    43    24    25 ar  
    44    24    58 1   
    45    25    26 1   
    46    25    27 ar  
    47    26    59 1   
    48    27    28 1   
    49    28    60 1   
    50    29    30 ar  
    51    29    61 1   
    52    30    31 1   
    53    31    32 1   
    54    31    62 1   
    55    31    63 1   
    56    32    33 1   
    57    32    64 1   
    58    33    34 2   
    59    33    35 1   
    60    35    36 ar  
    61    35    41 ar  
    62    36    37 ar  
    63    36    65 1   
    64    37    38 ar  
    65    37    66 1   
    66    38    39 ar  
    67    38    67 1   
    68    39    40 1   
    69    39    41 ar  
    70    40    68 1   
    71    41    42 1   
    72    42    69 1   
@<TRIPOS>SUBSTRUCTURE
     1 ECA         1 TEMP              0 ****  ****    0 ROOT
