@<TRIPOS>MOLECULE
ECB
   65    64     1     0     0
SMALL
abcg2


@<TRIPOS>ATOM
      1 CAA         13.2960    -0.5600     0.0720 c3         1 ECB      -0.089100
      2 CAM         12.1880     0.1960    -0.6480 c3         1 ECB      -0.074400
      3 CAU         10.9560     0.4060     0.2240 c3         1 ECB      -0.076400
      4 CAV          9.8310     1.1390    -0.4930 c3         1 ECB      -0.073400
      5 CAQ          8.6090     1.3670     0.3970 c3         1 ECB      -0.043200
      6 CAK          7.5130     2.0830    -0.3280 c2         1 ECB      -0.216200
      7 CAI          6.2720     1.6580    -0.5610 c2         1 ECB      -0.213200
      8 CAO          5.6440     0.3720    -0.1020 c3         1 ECB      -0.012000
      9 CAG          4.5470     0.6520     0.8840 c2         1 ECB      -0.213200
     10 CAE          3.2390     0.4690     0.7160 c2         1 ECB      -0.214200
     11 CAN          2.5450    -0.1070    -0.4840 c3         1 ECB      -0.012000
     12 CAF          1.9280    -1.4330    -0.1450 c2         1 ECB      -0.213200
     13 CAH          0.6330    -1.7470    -0.1270 c2         1 ECB      -0.215200
     14 CAP         -0.5270    -0.8660    -0.4900 c3         1 ECB      -0.012000
     15 CAJ         -1.1930    -1.3650    -1.7410 c2         1 ECB      -0.208200
     16 CAL         -2.4420    -1.8070    -1.8740 c2         1 ECB      -0.219200
     17 CAR         -3.5060    -1.8730    -0.8250 c3         1 ECB      -0.044200
     18 CAW         -4.6640    -0.9290    -1.1480 c3         1 ECB      -0.066400
     19 CAX         -5.7780    -1.0230    -0.1190 c3         1 ECB      -0.138400
     20 CAZ         -6.9570    -0.1420    -0.4340 c          1 ECB       0.594100
     21 OAB         -7.0100     0.6350    -1.3550 o          1 ECB      -0.502000
     22 OAY         -7.9460    -0.3260     0.4340 os         1 ECB      -0.425100
     23 CBA         -9.1680     0.4090     0.2690 c3         1 ECB       0.179300
     24 CAT        -10.2880    -0.4540     0.8100 c3         1 ECB       0.159100
     25 OAD        -10.1260    -0.7190     2.1790 oh         1 ECB      -0.627000
     26 CAS         -9.0500     1.8020     0.8630 c3         1 ECB       0.159100
     27 OAC         -8.6140     1.7480     2.1960 oh         1 ECB      -0.627000
     28 H1          13.6090    -0.0310     0.9750 hc         1 ECB       0.031367
     29 H2          12.9620    -1.5540     0.3740 hc         1 ECB       0.031367
     30 H3          14.1760    -0.6840    -0.5600 hc         1 ECB       0.031367
     31 H4          12.5630     1.1670    -0.9830 hc         1 ECB       0.036700
     32 H5          11.9010    -0.3470    -1.5540 hc         1 ECB       0.036700
     33 H6          10.5890    -0.5650     0.5740 hc         1 ECB       0.036700
     34 H7          11.2400     0.9640     1.1240 hc         1 ECB       0.036700
     35 H8          10.1970     2.1030    -0.8620 hc         1 ECB       0.039200
     36 H9           9.5300     0.5690    -1.3790 hc         1 ECB       0.039200
     37 H10          8.2640     0.4090     0.7920 hc         1 ECB       0.044200
     38 H11          8.9150     1.9620     1.2650 hc         1 ECB       0.044200
     39 H12          7.7880     3.0560    -0.7270 ha         1 ECB       0.165000
     40 H13          5.6090     2.3110    -1.1230 ha         1 ECB       0.168000
     41 H14          5.2590    -0.1730    -0.9670 hc         1 ECB       0.050700
     42 H15          6.3890    -0.2750     0.3660 hc         1 ECB       0.050700
     43 H16          4.8810     1.0770     1.8260 ha         1 ECB       0.169000
     44 H17          2.5810     0.7390     1.5380 ha         1 ECB       0.169000
     45 H18          1.7850     0.5960    -0.8340 hc         1 ECB       0.050700
     46 H19          3.2480    -0.2360    -1.3110 hc         1 ECB       0.050700
     47 H20          2.6390    -2.2050     0.1370 ha         1 ECB       0.169000
     48 H21          0.3650    -2.7620     0.1530 ha         1 ECB       0.169000
     49 H22         -1.2360    -0.8430     0.3420 hc         1 ECB       0.051200
     50 H23         -0.1990     0.1640    -0.6460 hc         1 ECB       0.051200
     51 H24         -0.5570    -1.3700    -2.6220 ha         1 ECB       0.169000
     52 H25         -2.7530    -2.1350    -2.8630 ha         1 ECB       0.167000
     53 H26         -3.8900    -2.8980    -0.7670 hc         1 ECB       0.044700
     54 H27         -3.1030    -1.6400     0.1640 hc         1 ECB       0.044700
     55 H28         -4.2870     0.0950    -1.2010 hc         1 ECB       0.055200
     56 H29         -5.0560    -1.1660    -2.1410 hc         1 ECB       0.055200
     57 H30         -6.1340    -2.0540    -0.0280 hc         1 ECB       0.073700
     58 H31         -5.4070    -0.7530     0.8750 hc         1 ECB       0.073700
     59 H32         -9.3820     0.5430    -0.7960 h1         1 ECB       0.063700
     60 H33        -11.2260     0.0780     0.6000 h1         1 ECB       0.024700
     61 H34        -10.3150    -1.3780     0.2190 h1         1 ECB       0.024700
     62 H35        -10.7810    -1.3770     2.4260 ho         1 ECB       0.437000
     63 H36         -8.3620     2.3860     0.2410 h1         1 ECB       0.024700
     64 H37        -10.0360     2.2780     0.7630 h1         1 ECB       0.024700
     65 H38         -8.4040     2.6460     2.4690 ho         1 ECB       0.437000
@<TRIPOS>BOND
     1     1     2 1   
     2     1    28 1   
     3     1    29 1   
     4     1    30 1   
     5     2     3 1   
     6     2    31 1   
     7     2    32 1   
     8     3     4 1   
     9     3    33 1   
    10     3    34 1   
    11     4     5 1   
    12     4    35 1   
    13     4    36 1   
    14     5     6 1   
    15     5    37 1   
    16     5    38 1   
    17     6     7 2   
    18     6    39 1   
    19     7     8 1   
    20     7    40 1   
    21     8     9 1   
    22     8    41 1   
    23     8    42 1   
    24     9    10 2   
    25     9    43 1   
    26    10    11 1   
    27    10    44 1   
    28    11    12 1   
    29    11    45 1   
    30    11    46 1   
    31    12    13 2   
    32    12    47 1   
    33    13    14 1   
    34    13    48 1   
    35    14    15 1   
    36    14    49 1   
    37    14    50 1   
    38    15    16 2   
    39    15    51 1   
    40    16    17 1   
    41    16    52 1   
    42    17    18 1   
    43    17    53 1   
    44    17    54 1   
    45    18    19 1   
    46    18    55 1   
    47    18    56 1   
    48    19    20 1   
    49    19    57 1   
    50    19    58 1   
    51    20    21 2   
    52    20    22 1   
    53    22    23 1   
    54    23    24 1   
    55    23    26 1   
    56    23    59 1   
    57    24    25 1   
    58    24    60 1   
    59    24    61 1   
    60    25    62 1   
    61    26    27 1   
    62    26    63 1   
    63    26    64 1   
    64    27    65 1   
@<TRIPOS>SUBSTRUCTURE
     1 ECB         1 TEMP              0 ****  ****    0 ROOT
