@<TRIPOS>MOLECULE
ECB
   65    64     1     0     0
SMALL
No Charge or Current Charge


@<TRIPOS>ATOM
      1 CAA         10.9580    -0.3380    -3.0930 c3         1 ECB      -0.089100
      2 CAM          9.8160     0.6150    -2.6900 c3         1 ECB      -0.074400
      3 CAU          9.6250     0.7180    -1.1610 c3         1 ECB      -0.076400
      4 CAV          8.4800     1.6730    -0.7580 c3         1 ECB      -0.073400
      5 CAQ          8.2850     1.7760     0.7690 c3         1 ECB      -0.043200
      6 CAK          7.1510     2.7140     1.1400 c2         1 ECB      -0.216200
      7 CAI          5.8490     2.4030     1.2700 c2         1 ECB      -0.213200
      8 CAO          5.1950     1.0520     1.0450 c3         1 ECB      -0.012000
      9 CAG          4.4850     0.5810     2.3000 c2         1 ECB      -0.213200
     10 CAE          3.3760    -0.1780     2.3660 c2         1 ECB      -0.214200
     11 CAN          2.5910    -0.7560     1.2020 c3         1 ECB      -0.012000
     12 CAF          2.1090    -2.1600     1.5160 c2         1 ECB      -0.213200
     13 CAH          0.9240    -2.7050     1.1860 c2         1 ECB      -0.215200
     14 CAP         -0.1960    -2.0470     0.4030 c3         1 ECB      -0.012000
     15 CAJ         -0.9510    -3.0720    -0.4230 c2         1 ECB      -0.208200
     16 CAL         -2.2640    -3.3610    -0.3680 c2         1 ECB      -0.219200
     17 CAR         -3.2990    -2.7510     0.5590 c3         1 ECB      -0.044200
     18 CAW         -3.9180    -1.4660    -0.0270 c3         1 ECB      -0.066400
     19 CAX         -4.9720    -0.8190     0.9030 c3         1 ECB      -0.138400
     20 CAZ         -5.5590     0.4500     0.2820 c          1 ECB       0.594100
     21 OAB         -5.0270     1.5490     0.3650 o          1 ECB      -0.502000
     22 OAY         -6.6560     0.1720    -0.4910 os         1 ECB      -0.425100
     23 CBA         -7.3520     1.2640    -1.1480 c3         1 ECB       0.179300
     24 CAT         -8.3060     0.6670    -2.2300 c3         1 ECB       0.159100
     25 OAD         -9.2490    -0.2820    -1.6970 oh         1 ECB      -0.627000
     26 CAS         -8.0670     2.1820    -0.0990 c3         1 ECB       0.159100
     27 OAC         -8.7370     1.4450     0.9420 oh         1 ECB      -0.627000
     28 H1          11.9130     0.0030    -2.6760 hc         1 ECB       0.031367
     29 H2          10.7630    -1.3530    -2.7280 hc         1 ECB       0.031367
     30 H3          11.0550    -0.3780    -4.1840 hc         1 ECB       0.031367
     31 H4          10.0230     1.6120    -3.0990 hc         1 ECB       0.036700
     32 H5           8.8830     0.2680    -3.1510 hc         1 ECB       0.036700
     33 H6           9.4200    -0.2810    -0.7560 hc         1 ECB       0.036700
     34 H7          10.5600     1.0640    -0.7040 hc         1 ECB       0.036700
     35 H8           8.6830     2.6730    -1.1610 hc         1 ECB       0.039200
     36 H9           7.5440     1.3280    -1.2160 hc         1 ECB       0.039200
     37 H10          8.1070     0.7740     1.1780 hc         1 ECB       0.044200
     38 H11          9.2170     2.1250     1.2300 hc         1 ECB       0.044200
     39 H12          7.4770     3.7400     1.3240 ha         1 ECB       0.165000
     40 H13          5.1390     3.1850     1.5500 ha         1 ECB       0.168000
     41 H14          4.4890     1.1350     0.2110 hc         1 ECB       0.050700
     42 H15          5.9300     0.2990     0.7400 hc         1 ECB       0.050700
     43 H16          4.9550     0.9210     3.2250 ha         1 ECB       0.169000
     44 H17          2.9620    -0.4350     3.3440 ha         1 ECB       0.169000
     45 H18          1.7450    -0.0950     0.9800 hc         1 ECB       0.050700
     46 H19          3.2060    -0.7850     0.2950 hc         1 ECB       0.050700
     47 H20          2.8330    -2.7570     2.0760 ha         1 ECB       0.169000
     48 H21          0.7050    -3.7310     1.4880 ha         1 ECB       0.169000
     49 H22         -0.8640    -1.5240     1.0960 hc         1 ECB       0.051200
     50 H23          0.2020    -1.2760    -0.2670 hc         1 ECB       0.051200
     51 H24         -0.3190    -3.5970    -1.1420 ha         1 ECB       0.169000
     52 H25         -2.6730    -4.1210    -1.0380 ha         1 ECB       0.167000
     53 H26         -4.0950    -3.4810     0.7540 hc         1 ECB       0.044700
     54 H27         -2.8560    -2.5250     1.5370 hc         1 ECB       0.044700
     55 H28         -3.1180    -0.7410    -0.2250 hc         1 ECB       0.055200
     56 H29         -4.3820    -1.6990    -0.9940 hc         1 ECB       0.055200
     57 H30         -5.7770    -1.5480     1.0520 hc         1 ECB       0.073700
     58 H31         -4.4990    -0.5640     1.8590 hc         1 ECB       0.073700
     59 H32         -6.6320     1.8900    -1.6920 h1         1 ECB       0.063700
     60 H33         -8.8400     1.4930    -2.7190 h1         1 ECB       0.024700
     61 H34         -7.6900     0.1830    -3.0000 h1         1 ECB       0.024700
     62 H35         -9.7680    -0.6280    -2.4550 ho         1 ECB       0.437000
     63 H36         -7.3210     2.8510     0.3480 h1         1 ECB       0.024700
     64 H37         -8.7850     2.8240    -0.6280 h1         1 ECB       0.024700
     65 H38         -9.1880     2.1020     1.5160 ho         1 ECB       0.437000
@<TRIPOS>BOND
     1     1     2 1   
     2     1    28 1   
     3     1    29 1   
     4     1    30 1   
     5     2     3 1   
     6     2    31 1   
     7     2    32 1   
     8     3     4 1   
     9     3    33 1   
    10     3    34 1   
    11     4     5 1   
    12     4    35 1   
    13     4    36 1   
    14     5     6 1   
    15     5    37 1   
    16     5    38 1   
    17     6     7 2   
    18     6    39 1   
    19     7     8 1   
    20     7    40 1   
    21     8     9 1   
    22     8    41 1   
    23     8    42 1   
    24     9    10 2   
    25     9    43 1   
    26    10    11 1   
    27    10    44 1   
    28    11    12 1   
    29    11    45 1   
    30    11    46 1   
    31    12    13 2   
    32    12    47 1   
    33    13    14 1   
    34    13    48 1   
    35    14    15 1   
    36    14    49 1   
    37    14    50 1   
    38    15    16 2   
    39    15    51 1   
    40    16    17 1   
    41    16    52 1   
    42    17    18 1   
    43    17    53 1   
    44    17    54 1   
    45    18    19 1   
    46    18    55 1   
    47    18    56 1   
    48    19    20 1   
    49    19    57 1   
    50    19    58 1   
    51    20    21 2   
    52    20    22 1   
    53    22    23 1   
    54    23    24 1   
    55    23    26 1   
    56    23    59 1   
    57    24    25 1   
    58    24    60 1   
    59    24    61 1   
    60    25    62 1   
    61    26    27 1   
    62    26    63 1   
    63    26    64 1   
    64    27    65 1   
@<TRIPOS>SUBSTRUCTURE
     1 ECB         1 TEMP              0 ****  ****    0 ROOT
