@<TRIPOS>MOLECULE
ECC
   21    20     1     0     0
SMALL
No Charge or Current Charge


@<TRIPOS>ATOM
      1 C           15.0480    -3.6490    23.8440 c3         1 ECC       0.161600
      2 N           16.3480    -1.5580    23.3440 n8         1 ECC      -1.002200
      3 O           14.2050    -4.2950    24.8130 oh         1 ECC      -0.665000
      4 CA          15.3210    -2.1590    24.2290 c3         1 ECC       0.160500
      5 CB          14.0320    -1.2920    24.2280 c3         1 ECC      -0.063400
      6 CD          12.8930     0.9060    24.8160 c          1 ECC       0.605100
      7 CG          14.2310     0.1660    24.7260 c3         1 ECC      -0.160400
      8 OE1         12.3550     1.4360    23.8590 o          1 ECC      -0.602100
      9 NE2         12.3170     0.9490    26.0350 nt         1 ECC      -0.615000
     10 H           14.5820    -3.6860    22.8500 h1         1 ECC       0.026700
     11 HA          16.0080    -4.1810    23.7790 h1         1 ECC       0.026700
     12 HN          16.5350    -0.6000    23.6610 hn         1 ECC       0.394000
     13 HNA         17.2430    -2.0390    23.4960 hn         1 ECC       0.394000
     14 HO          14.0880    -5.2250    24.5140 ho         1 ECC       0.447000
     15 HAA         15.7330    -2.1480    25.2470 h1         1 ECC       0.025700
     16 HB          13.6070    -1.2760    23.2160 hc         1 ECC       0.070700
     17 HBA         13.2840    -1.7750    24.8690 hc         1 ECC       0.070700
     18 HG          14.6900     0.1160    25.7210 hc         1 ECC       0.050700
     19 HGA         14.8850     0.7020    24.0290 hc         1 ECC       0.050700
     20 HNE2        11.4340     1.4260    26.1480 hn         1 ECC       0.311000
     21 HNEA        12.7670     0.5080    26.8230 hn         1 ECC       0.311000
@<TRIPOS>BOND
     1     1     3 1   
     2     1     4 1   
     3     1    10 1   
     4     1    11 1   
     5     2     4 1   
     6     2    12 1   
     7     2    13 1   
     8     3    14 1   
     9     4     5 1   
    10     4    15 1   
    11     5     7 1   
    12     5    16 1   
    13     5    17 1   
    14     6     7 1   
    15     6     8 2   
    16     6     9 1   
    17     7    18 1   
    18     7    19 1   
    19     9    20 1   
    20     9    21 1   
@<TRIPOS>SUBSTRUCTURE
     1 ECC         1 TEMP              0 ****  ****    0 ROOT
