@<TRIPOS>MOLECULE
ECC
   21    20     1     0     0
SMALL
abcg2


@<TRIPOS>ATOM
      1 C           15.1410    -3.6150    23.7330 c3         1 ECC       0.161600
      2 N           16.3230    -1.5420    23.4770 n8         1 ECC      -1.002200
      3 O           14.2720    -4.3450    24.5680 oh         1 ECC      -0.665000
      4 CA          15.3050    -2.2040    24.2840 c3         1 ECC       0.160500
      5 CB          13.9890    -1.4340    24.2190 c3         1 ECC      -0.063400
      6 CD          12.7280     0.6530    24.9130 c          1 ECC       0.605100
      7 CG          14.0600    -0.0690    24.8930 c3         1 ECC      -0.160400
      8 OE1         11.9020     0.5280    24.0200 o          1 ECC      -0.602100
      9 NE2         12.5340     1.4580    25.9720 nt         1 ECC      -0.615000
     10 H           14.7620    -3.5450    22.7040 h1         1 ECC       0.026700
     11 HA          16.1300    -4.0920    23.6770 h1         1 ECC       0.026700
     12 HN          16.4940    -0.6090    23.8270 hn         1 ECC       0.394000
     13 HNA         17.2060    -2.0280    23.5850 hn         1 ECC       0.394000
     14 HO          14.1060    -5.1980    24.1590 ho         1 ECC       0.447000
     15 HAA         15.5990    -2.2930    25.3430 h1         1 ECC       0.025700
     16 HB          13.7020    -1.3230    23.1700 hc         1 ECC       0.070700
     17 HBA         13.2120    -2.0300    24.7010 hc         1 ECC       0.070700
     18 HG          14.4510    -0.1720    25.9090 hc         1 ECC       0.050700
     19 HGA         14.7600     0.5900    24.3650 hc         1 ECC       0.050700
     20 HNE2        11.7070     2.0290    26.0340 hn         1 ECC       0.311000
     21 HNEA        13.2250     1.5650    26.6940 hn         1 ECC       0.311000
@<TRIPOS>BOND
     1     1     3 1   
     2     1     4 1   
     3     1    10 1   
     4     1    11 1   
     5     2     4 1   
     6     2    12 1   
     7     2    13 1   
     8     3    14 1   
     9     4     5 1   
    10     4    15 1   
    11     5     7 1   
    12     5    16 1   
    13     5    17 1   
    14     6     7 1   
    15     6     8 2   
    16     6     9 1   
    17     7    18 1   
    18     7    19 1   
    19     9    20 1   
    20     9    21 1   
@<TRIPOS>SUBSTRUCTURE
     1 ECC         1 TEMP              0 ****  ****    0 ROOT
