@<TRIPOS>MOLECULE
ECD
   22    22     1     0     0
SMALL
bcc


@<TRIPOS>ATOM
      1 O01         -3.9860     0.8820    -0.4520 o          1 ECD      -0.817800
      2 C02         -3.1540     0.0310    -0.0760 c          1 ECD       0.933600
      3 O03         -3.3890    -0.9910     0.5960 o          1 ECD      -0.817800
      4 C04         -1.6950     0.2870    -0.5040 c3         1 ECD      -0.222400
      5 C06         -0.6870    -0.7360    -0.0060 c3         1 ECD      -0.062400
      6 C07          0.7070    -0.5220    -0.5640 c5         1 ECD       0.022000
      7 C08          1.7340    -1.5530    -0.0760 c5         1 ECD       0.004300
      8 N09          2.9420    -0.7510     0.0460 nu         1 ECD      -0.397100
      9 C10          2.6270     0.5390     0.1230 cz         1 ECD       0.468300
     10 N11          3.4830     1.5010     0.3960 nv         1 ECD      -0.504200
     11 N12          1.3300     0.7250    -0.1100 nu         1 ECD      -0.343200
     12 H04         -1.6640     0.3340    -1.5990 hc         1 ECD       0.018200
     13 H04A        -1.4200     1.2930    -0.1660 hc         1 ECD       0.018200
     14 H06         -0.6370    -0.7330     1.0850 hc         1 ECD       0.074200
     15 H06A        -1.0060    -1.7390    -0.3000 hc         1 ECD       0.074200
     16 H07          0.6700    -0.5200    -1.6590 h1         1 ECD       0.078700
     17 H08          1.4480    -1.9710     0.8930 h1         1 ECD       0.090700
     18 HN11         4.4540     1.2990     0.5690 hn         1 ECD       0.322700
     19 HN1A         3.1970     2.4650     0.4050 hn         1 ECD       0.322700
     20 H08A         1.8680    -2.3670    -0.7830 h1         1 ECD       0.090700
     21 HN09         3.7930    -1.1180     0.4420 hn         1 ECD       0.315700
     22 HN12         0.9730     1.6280    -0.3800 hn         1 ECD       0.331700
@<TRIPOS>BOND
     1     1     2 1   
     2     2     3 1   
     3     2     4 1   
     4     4     5 1   
     5     4    12 1   
     6     4    13 1   
     7     5     6 1   
     8     5    14 1   
     9     5    15 1   
    10     6     7 1   
    11     6    11 1   
    12     6    16 1   
    13     7     8 1   
    14     7    17 1   
    15     7    20 1   
    16     8     9 2   
    17     8    21 1   
    18     9    10 1   
    19     9    11 1   
    20    10    18 1   
    21    10    19 1   
    22    11    22 1   
@<TRIPOS>SUBSTRUCTURE
     1 ECD         1 TEMP              0 ****  ****    0 ROOT
