@<TRIPOS>MOLECULE
ECD
   22    22     1     0     0
SMALL
No Charge or Current Charge


@<TRIPOS>ATOM
      1 O01         -3.4340     0.6710     0.9600 o          1 ECD      -0.712500
      2 C02         -3.1330     0.0350    -0.0380 c          1 ECD       0.723000
      3 O03         -3.8470    -0.8170    -0.5430 o          1 ECD      -0.712500
      4 C04         -1.7410     0.2670    -0.6500 c3         1 ECD      -0.222400
      5 C06         -0.7060    -0.6870     0.0030 c3         1 ECD      -0.062400
      6 C07          0.7200    -0.5810    -0.5880 c5         1 ECD       0.051300
      7 C08          1.7710    -1.5880     0.0480 c5         1 ECD       0.033600
      8 N09          2.7880    -0.6150     0.5290 nu         1 ECD      -0.882000
      9 C10          2.5060     0.6490     0.4000 cz         1 ECD       0.873600
     10 N11          3.4560     1.5290     0.2380 nv         1 ECD      -0.604800
     11 N12          1.3700     0.7020    -0.2310 nu         1 ECD      -0.422800
     12 H04         -1.7470     0.0170    -1.7190 hc         1 ECD       0.018200
     13 H04A        -1.3970     1.2860    -0.4370 hc         1 ECD       0.018200
     14 H06         -0.6760    -0.5010     1.0850 hc         1 ECD       0.074200
     15 H06A        -1.0620    -1.7180    -0.1170 hc         1 ECD       0.074200
     16 H07          0.6690    -0.7180    -1.6770 h1         1 ECD       0.078700
     17 H08          1.3310    -2.1790     0.8660 h1         1 ECD       0.090700
     18 HN11         4.3890     1.3500     0.5720 hn         1 ECD       0.373000
     19 HN1A         3.2560     2.4830    -0.0190 hn         1 ECD       0.373000
     20 H08A         2.1650    -2.2870    -0.7040 h1         1 ECD       0.090700
     21 HN09         3.7650    -0.8730     0.6220 hn         1 ECD       0.366000
     22 HN12         1.1450     1.5570    -0.7190 hn         1 ECD       0.382000
@<TRIPOS>BOND
     1     1     2 1   
     2     2     3 1   
     3     2     4 1   
     4     4     5 1   
     5     4    12 1   
     6     4    13 1   
     7     5     6 1   
     8     5    14 1   
     9     5    15 1   
    10     6     7 1   
    11     6    11 1   
    12     6    16 1   
    13     7     8 1   
    14     7    17 1   
    15     7    20 1   
    16     8     9 2   
    17     8    21 1   
    18     9    10 1   
    19     9    11 1   
    20    10    18 1   
    21    10    19 1   
    22    11    22 1   
@<TRIPOS>SUBSTRUCTURE
     1 ECD         1 TEMP              0 ****  ****    0 ROOT
