@<TRIPOS>MOLECULE
ECE
   18    18     1     0     0
SMALL
No Charge or Current Charge


@<TRIPOS>ATOM
      1 C4           1.5730     0.6580    -0.7020 c3         1 ECE      -0.082400
      2 C5           1.7640    -0.7880    -0.1780 c3         1 ECE      -0.104400
      3 C6           0.4840    -1.5680     0.2350 c3         1 ECE       0.174600
      4 C2          -0.5660     1.0320     0.7340 c3         1 ECE      -0.190400
      5 C3           0.7940     1.5960     0.2480 c3         1 ECE      -0.065400
      6 O7          -0.6670    -1.1200    -0.5180 os         1 ECE      -0.443100
      7 C1          -1.2410     0.1220    -0.3150 c          1 ECE       0.664100
      8 O           -2.0900     0.5530    -1.0820 o          1 ECE      -0.501000
      9 H1           2.5610     1.0960    -0.8930 hc         1 ECE       0.051700
     10 H2           1.0710     0.6250    -1.6770 hc         1 ECE       0.051700
     11 H3           2.2760    -1.3640    -0.9580 hc         1 ECE       0.052200
     12 H4           2.4490    -0.7710     0.6800 hc         1 ECE       0.052200
     13 H5           0.6590    -2.6350     0.0430 h1         1 ECE       0.054200
     14 H6           0.3130    -1.4830     1.3160 h1         1 ECE       0.054200
     15 H7          -0.3710     0.4710     1.6530 hc         1 ECE       0.068700
     16 H8          -1.2310     1.8720     0.9670 hc         1 ECE       0.068700
     17 H9           1.4150     1.8400     1.1180 hc         1 ECE       0.047200
     18 H10          0.6160     2.5410    -0.2810 hc         1 ECE       0.047200
@<TRIPOS>BOND
     1     1     2 1   
     2     1     5 1   
     3     1     9 1   
     4     1    10 1   
     5     2     3 1   
     6     2    11 1   
     7     2    12 1   
     8     3     6 1   
     9     3    13 1   
    10     3    14 1   
    11     4     5 1   
    12     4     7 1   
    13     4    15 1   
    14     4    16 1   
    15     5    17 1   
    16     5    18 1   
    17     6     7 1   
    18     7     8 2   
@<TRIPOS>SUBSTRUCTURE
     1 ECE         1 TEMP              0 ****  ****    0 ROOT
