@<TRIPOS>MOLECULE
ECE
   18    18     1     0     0
SMALL
bcc


@<TRIPOS>ATOM
      1 C4           1.5810     0.6620    -0.6920 c3         1 ECE      -0.082400
      2 C5           1.7940    -0.7950    -0.2910 c3         1 ECE      -0.104400
      3 C6           0.5440    -1.4470     0.2800 c3         1 ECE       0.151400
      4 C2          -0.6080     1.0420     0.6560 c3         1 ECE      -0.190400
      5 C3           0.8390     1.5010     0.3440 c3         1 ECE      -0.065400
      6 O7          -0.6260    -1.1190    -0.4770 os         1 ECE      -0.419900
      7 C1          -1.1940     0.0820    -0.3500 c          1 ECE       0.739600
      8 O           -2.1560     0.3270    -1.0350 o          1 ECE      -0.576500
      9 H1           2.5530     1.1210    -0.8850 hc         1 ECE       0.051700
     10 H2           1.0480     0.7070    -1.6470 hc         1 ECE       0.051700
     11 H3           2.1510    -1.3600    -1.1540 hc         1 ECE       0.052200
     12 H4           2.5710    -0.8670     0.4740 hc         1 ECE       0.052200
     13 H5           0.6180    -2.5320     0.2390 h1         1 ECE       0.054200
     14 H6           0.4030    -1.1750     1.3280 h1         1 ECE       0.054200
     15 H7          -0.6490     0.5740     1.6430 hc         1 ECE       0.068700
     16 H8          -1.2710     1.9030     0.7000 hc         1 ECE       0.068700
     17 H9           1.4100     1.5220     1.2740 hc         1 ECE       0.047200
     18 H10          0.8010     2.5290    -0.0160 hc         1 ECE       0.047200
@<TRIPOS>BOND
     1     1     2 1   
     2     1     5 1   
     3     1     9 1   
     4     1    10 1   
     5     2     3 1   
     6     2    11 1   
     7     2    12 1   
     8     3     6 1   
     9     3    13 1   
    10     3    14 1   
    11     4     5 1   
    12     4     7 1   
    13     4    15 1   
    14     4    16 1   
    15     5    17 1   
    16     5    18 1   
    17     6     7 1   
    18     7     8 2   
@<TRIPOS>SUBSTRUCTURE
     1 ECE         1 TEMP              0 ****  ****    0 ROOT
