@<TRIPOS>MOLECULE
ECF
   27    29     1     0     0
SMALL
bcc


@<TRIPOS>ATOM
      1 C1           9.7680    -4.5890     1.2970 ca         1 ECF      -0.182000
      2 C15          7.7950    -7.0620     0.8780 cc         1 ECF      -0.248600
      3 C16          6.5200    -7.2400     0.4350 cd         1 ECF       0.298200
      4 C18          7.6600    -6.7270    -1.2880 cc         1 ECF       0.405400
      5 C2          10.4540    -3.6340     1.9820 ca         1 ECF       0.168900
      6 C3          11.8390    -3.4690     1.8890 ca         1 ECF      -0.271000
      7 C4          12.5590    -4.2940     1.0580 ca         1 ECF       0.119800
      8 C5          11.9000    -5.3110     0.3060 ca         1 ECF       0.423600
      9 C6          10.5020    -5.4510     0.4550 ca         1 ECF      -0.139300
     10 C7           9.9100    -6.4900    -0.3170 ca         1 ECF       0.064800
     11 C8          10.6660    -7.2510    -1.1510 ca         1 ECF      -0.281300
     12 C9          12.0660    -6.9980    -1.2340 ca         1 ECF       0.676200
     13 F13          9.7870    -2.7950     2.7910 f          1 ECF      -0.138900
     14 N10         12.6510    -6.0730    -0.5150 nb         1 ECF      -0.717000
     15 N12         12.8160    -7.7220    -2.1020 nv         1 ECF      -0.951500
     16 N14          8.5240    -6.7300    -0.2390 na         1 ECF      -0.144000
     17 N17          6.4480    -7.0230    -0.9150 nd         1 ECF      -0.667000
     18 O11         13.8840    -4.1990     0.8990 oh         1 ECF      -0.454100
     19 H1           8.6940    -4.6670     1.3960 ha         1 ECF       0.165000
     20 H3           5.6540    -7.5160     1.0160 h4         1 ECF       0.041100
     21 H4           7.9830    -6.4840    -2.2900 h5         1 ECF       0.060100
     22 H5          12.3270    -2.6870     2.4600 ha         1 ECF       0.154000
     23 H6          10.2200    -8.0520    -1.7250 ha         1 ECF       0.155000
     24 H7          13.8160    -7.6950    -1.9810 hn         1 ECF       0.426800
     25 H8          12.4520    -8.5940    -2.4460 hn         1 ECF       0.426800
     26 H9          14.2350    -3.4800     1.4380 ho         1 ECF       0.426000
     27 H2           8.2440    -7.1620     1.8520 h4         1 ECF       0.183000
@<TRIPOS>BOND
     1     1     5 ar  
     2     1     9 ar  
     3     1    19 1   
     4     2     3 2   
     5     2    16 1   
     6     2    27 1   
     7     3    17 1   
     8     3    20 1   
     9     4    16 1   
    10     4    17 2   
    11     4    21 1   
    12     5     6 ar  
    13     5    13 1   
    14     6     7 ar  
    15     6    22 1   
    16     7     8 ar  
    17     7    18 1   
    18     8     9 ar  
    19     8    14 ar  
    20     9    10 ar  
    21    10    11 ar  
    22    10    16 1   
    23    11    12 ar  
    24    11    23 1   
    25    12    14 ar  
    26    12    15 1   
    27    15    24 1   
    28    15    25 1   
    29    18    26 1   
@<TRIPOS>SUBSTRUCTURE
     1 ECF         1 TEMP              0 ****  ****    0 ROOT
