@<TRIPOS>MOLECULE
ECF
   27    29     1     0     0
SMALL
No Charge or Current Charge


@<TRIPOS>ATOM
      1 C1           9.8120    -4.5780     1.2640 ca         1 ECF      -0.164000
      2 C15          7.8290    -7.1350     0.8660 cc         1 ECF      -0.216000
      3 C16          6.5340    -7.3190     0.4430 cd         1 ECF       0.232900
      4 C18          7.6050    -6.6330    -1.3170 cc         1 ECF       0.405400
      5 C2          10.4910    -3.5960     1.9920 ca         1 ECF       0.204000
      6 C3          11.8760    -3.4560     1.8770 ca         1 ECF      -0.253000
      7 C4          12.5970    -4.3020     1.0190 ca         1 ECF       0.185100
      8 C5          11.9340    -5.3160     0.2580 ca         1 ECF       0.293000
      9 C6          10.5190    -5.4490     0.4000 ca         1 ECF      -0.074000
     10 C7           9.8460    -6.4530    -0.3450 ca         1 ECF       0.064800
     11 C8          10.6080    -7.2610    -1.2010 ca         1 ECF      -0.198000
     12 C9          11.9800    -7.0440    -1.2680 ca         1 ECF       0.610900
     13 F13          9.8020    -2.7740     2.8130 f          1 ECF      -0.174000
     14 N10         12.6390    -6.1270    -0.5800 nb         1 ECF      -0.717000
     15 N12         12.8070    -7.7590    -2.0350 nv         1 ECF      -1.061900
     16 N14          8.4710    -6.6700    -0.2530 na         1 ECF      -0.093300
     17 N17          6.3990    -7.0100    -0.9050 nd         1 ECF      -0.667000
     18 O11         13.9570    -4.1220     0.9350 oh         1 ECF      -0.493100
     19 H1           8.7340    -4.6440     1.3770 ha         1 ECF       0.147000
     20 H3           5.6930    -7.6700     1.0290 h4         1 ECF       0.041100
     21 H4           7.8990    -6.3330    -2.3170 h5         1 ECF       0.060100
     22 H5          12.3800    -2.6850     2.4540 ha         1 ECF       0.136000
     23 H6          10.1480    -8.0450    -1.7930 ha         1 ECF       0.137000
     24 H7          13.7880    -7.6500    -1.8080 hn         1 ECF       0.482000
     25 H8          12.5100    -8.6890    -2.3110 hn         1 ECF       0.482000
     26 H9          14.2090    -3.3840     1.5270 ho         1 ECF       0.465000
     27 H2           8.3050    -7.2920     1.8250 h4         1 ECF       0.165000
@<TRIPOS>BOND
     1     1     5 ar  
     2     1     9 ar  
     3     1    19 1   
     4     2     3 2   
     5     2    16 1   
     6     2    27 1   
     7     3    17 1   
     8     3    20 1   
     9     4    16 1   
    10     4    17 2   
    11     4    21 1   
    12     5     6 ar  
    13     5    13 1   
    14     6     7 ar  
    15     6    22 1   
    16     7     8 ar  
    17     7    18 1   
    18     8     9 ar  
    19     8    14 ar  
    20     9    10 ar  
    21    10    11 ar  
    22    10    16 1   
    23    11    12 ar  
    24    11    23 1   
    25    12    14 ar  
    26    12    15 1   
    27    15    24 1   
    28    15    25 1   
    29    18    26 1   
@<TRIPOS>SUBSTRUCTURE
     1 ECF         1 TEMP              0 ****  ****    0 ROOT
