@<TRIPOS>MOLECULE
ECG
   31    32     1     0     0
SMALL
No Charge or Current Charge


@<TRIPOS>ATOM
      1 C21         -2.7820     0.9460     0.2600 c5         1 ECG      -0.113400
      2 C24         -2.0080     0.4200    -0.9920 c5         1 ECG       0.165500
      3 C26         -0.7820     1.2770    -1.4190 c6         1 ECG      -0.103400
      4 C29          0.1630     1.5630    -0.2320 c6         1 ECG       0.190300
      5 O1           1.3750     2.1640    -0.7000 oh         1 ECG      -0.655000
      6 C18         -2.0440     0.2760     1.4740 c5         1 ECG      -0.111400
      7 C10         -0.8910    -0.5470     0.8120 c5         1 ECG       0.165500
      8 N12         -1.4980    -0.8850    -0.5050 n3         1 ECG      -0.682600
      9 C8           0.4210     0.2650     0.5800 c6         1 ECG      -0.103700
     10 C6           1.6120    -0.5650     0.0570 c          1 ECG       0.613100
     11 O5           2.8170    -0.1690     0.5930 os         1 ECG      -0.455100
     12 C1           3.9950    -0.9230     0.2530 c3         1 ECG       0.153900
     13 O7           1.4810    -1.6220    -0.5500 o          1 ECG      -0.461000
     14 C14         -2.4900    -1.9900    -0.4850 c3         1 ECG       0.148100
     15 H211        -2.7780     2.0400     0.3180 hc         1 ECG       0.048200
     16 H212        -3.8340     0.6390     0.2290 hc         1 ECG       0.048200
     17 H24         -2.6710     0.3100    -1.8640 h1         1 ECG       0.068700
     18 H261        -1.1320     2.2240    -1.8520 hc         1 ECG       0.062700
     19 H262        -0.2390     0.7510    -2.2170 hc         1 ECG       0.062700
     20 H29         -0.3480     2.2740     0.4340 h1         1 ECG       0.024700
     21 HO1          1.1280     3.0320    -1.0880 ho         1 ECG       0.445000
     22 H181        -1.6670     1.0130     2.1930 hc         1 ECG       0.050700
     23 H182        -2.7240    -0.3790     2.0300 hc         1 ECG       0.050700
     24 H10         -0.6440    -1.4410     1.4040 h1         1 ECG       0.073700
     25 H8           0.7750     0.6570     1.5420 hc         1 ECG       0.079700
     26 H11          3.9060    -1.9640     0.5880 h1         1 ECG       0.044700
     27 H12          4.1620    -0.9190    -0.8320 h1         1 ECG       0.044700
     28 H13          4.8800    -0.4860     0.7340 h1         1 ECG       0.044700
     29 H141        -3.3480    -1.7630     0.1600 h1         1 ECG       0.033367
     30 H142        -2.8670    -2.1820    -1.4980 h1         1 ECG       0.033367
     31 H143        -2.0240    -2.9140    -0.1190 h1         1 ECG       0.033367
@<TRIPOS>BOND
     1     1     2 1   
     2     1     6 1   
     3     1    15 1   
     4     1    16 1   
     5     2     3 1   
     6     2     8 1   
     7     2    17 1   
     8     3     4 1   
     9     3    18 1   
    10     3    19 1   
    11     4     5 1   
    12     4     9 1   
    13     4    20 1   
    14     5    21 1   
    15     6     7 1   
    16     6    22 1   
    17     6    23 1   
    18     7     8 1   
    19     7     9 1   
    20     7    24 1   
    21     8    14 1   
    22     9    10 1   
    23     9    25 1   
    24    10    11 1   
    25    10    13 2   
    26    11    12 1   
    27    12    26 1   
    28    12    27 1   
    29    12    28 1   
    30    14    29 1   
    31    14    30 1   
    32    14    31 1   
@<TRIPOS>SUBSTRUCTURE
     1 ECG         1 TEMP              0 ****  ****    0 ROOT
