@<TRIPOS>MOLECULE
ECG
   31    32     1     0     0
SMALL
bcc


@<TRIPOS>ATOM
      1 C21         -2.7350     0.8710     0.2540 c5         1 ECG      -0.113400
      2 C24         -1.9570     0.3390    -0.9750 c5         1 ECG       0.165500
      3 C26         -0.8900     1.3250    -1.4480 c6         1 ECG      -0.103400
      4 C29          0.0390     1.7130    -0.2990 c6         1 ECG       0.167100
      5 O1           1.2090     2.3770    -0.7260 oh         1 ECG      -0.592800
      6 C18         -1.9090     0.3610     1.4510 c5         1 ECG      -0.111400
      7 C10         -0.7480    -0.4190     0.7830 c5         1 ECG       0.165500
      8 N12         -1.2710    -0.8600    -0.5000 n3         1 ECG      -0.682600
      9 C8           0.4620     0.5070     0.5440 c6         1 ECG      -0.103700
     10 C6           1.5950    -0.2690    -0.0810 c          1 ECG       0.662100
     11 O5           2.5020    -0.6050     0.8350 os         1 ECG      -0.431900
     12 C1           3.6090    -1.3940     0.4050 c3         1 ECG       0.130700
     13 O7           1.6880    -0.5890    -1.2380 o          1 ECG      -0.510000
     14 C14         -2.1360    -2.0170    -0.3870 c3         1 ECG       0.148100
     15 H211        -2.8320     1.9580     0.2390 hc         1 ECG       0.048200
     16 H212        -3.7480     0.4680     0.2750 hc         1 ECG       0.048200
     17 H24         -2.6180     0.0930    -1.8080 h1         1 ECG       0.068700
     18 H261        -1.3650     2.2240    -1.8510 hc         1 ECG       0.062700
     19 H262        -0.3160     0.8640    -2.2530 hc         1 ECG       0.062700
     20 H29         -0.5250     2.3730     0.3750 h1         1 ECG       0.024700
     21 HO1          0.9470     3.1700    -1.2040 ho         1 ECG       0.406000
     22 H181        -1.5500     1.1640     2.0950 hc         1 ECG       0.050700
     23 H182        -2.4950    -0.3100     2.0790 hc         1 ECG       0.050700
     24 H10         -0.4310    -1.2750     1.3840 h1         1 ECG       0.073700
     25 H8           0.7940     0.8630     1.5230 hc         1 ECG       0.079700
     26 H11          3.2850    -2.3570     0.0110 h1         1 ECG       0.044700
     27 H12          4.1990    -0.8780    -0.3530 h1         1 ECG       0.044700
     28 H13          4.2220    -1.5550     1.2870 h1         1 ECG       0.044700
     29 H141        -3.0030    -1.8890     0.2760 h1         1 ECG       0.033367
     30 H142        -2.5140    -2.2870    -1.3740 h1         1 ECG       0.033367
     31 H143        -1.5620    -2.8660    -0.0130 h1         1 ECG       0.033367
@<TRIPOS>BOND
     1     1     2 1   
     2     1     6 1   
     3     1    15 1   
     4     1    16 1   
     5     2     3 1   
     6     2     8 1   
     7     2    17 1   
     8     3     4 1   
     9     3    18 1   
    10     3    19 1   
    11     4     5 1   
    12     4     9 1   
    13     4    20 1   
    14     5    21 1   
    15     6     7 1   
    16     6    22 1   
    17     6    23 1   
    18     7     8 1   
    19     7     9 1   
    20     7    24 1   
    21     8    14 1   
    22     9    10 1   
    23     9    25 1   
    24    10    11 1   
    25    10    13 2   
    26    11    12 1   
    27    12    26 1   
    28    12    27 1   
    29    12    28 1   
    30    14    29 1   
    31    14    30 1   
    32    14    31 1   
@<TRIPOS>SUBSTRUCTURE
     1 ECG         1 TEMP              0 ****  ****    0 ROOT
