@<TRIPOS>MOLECULE
ECH
   95    96     1     0     0
SMALL
No Charge or Current Charge


@<TRIPOS>ATOM
      1 C1          13.2040     0.8770     0.6120 c6         1 ECH       0.000200
      2 C2          14.2340     0.0280     1.4120 c6         1 ECH      -0.068400
      3 C3          14.7620    -1.1610     0.5890 c6         1 ECH      -0.071400
      4 C4          13.6120    -2.1250     0.2380 c6         1 ECH      -0.041200
      5 C5          12.3370    -1.4350    -0.2600 c2         1 ECH      -0.095400
      6 C6          12.1080    -0.0920    -0.0310 ce         1 ECH      -0.083200
      7 C7          10.8840     0.6080    -0.4660 ce         1 ECH      -0.154000
      8 C8           9.6080     0.1430    -0.3260 cf         1 ECH      -0.191000
      9 C9           8.3680     0.8220    -0.7150 cf         1 ECH      -0.056200
     10 C10          7.1670     0.3520    -0.2650 ce         1 ECH      -0.186000
     11 C11          5.8310     0.9010    -0.5500 ce         1 ECH      -0.165000
     12 C12          4.6700     0.3310    -0.1170 cf         1 ECH      -0.181000
     13 C13          3.3030     0.8060    -0.3550 cf         1 ECH      -0.057200
     14 C14          2.2420    -0.0090    -0.0760 ce         1 ECH      -0.182000
     15 C15          0.8120     0.2950    -0.2500 ce         1 ECH      -0.165000
     16 C16         -0.1940    -0.5480     0.1070 cf         1 ECH      -0.177000
     17 C17         -1.6150    -0.2490    -0.0640 cf         1 ECH      -0.170000
     18 C18         -2.6740    -1.0650     0.2160 ce         1 ECH      -0.068200
     19 C19         -4.0520    -0.5900    -0.0230 ce         1 ECH      -0.166000
     20 C20         -5.2110    -1.1650     0.4100 cf         1 ECH      -0.179000
     21 C21         -6.5400    -0.6200     0.1420 cf         1 ECH      -0.167000
     22 C22         -7.7450    -1.1640     0.4890 ce         1 ECH      -0.075200
     23 C23         -8.9960    -0.4670     0.1320 ce         1 ECH      -0.158000
     24 C24        -10.2500    -0.7260     0.6040 cf         1 ECH      -0.190000
     25 C25        -11.4610     0.0060     0.2100 cf         1 ECH      -0.012200
     26 C26        -11.5520     1.3770     0.2790 ce         1 ECH      -0.193400
     27 C27        -12.8410     2.1410    -0.1690 c          1 ECH       0.570300
     28 O27        -13.0200     3.3660    -0.0660 o          1 ECH      -0.532100
     29 C28        -14.0010     1.2950    -0.7580 c6         1 ECH      -0.178400
     30 C29        -14.0110    -0.1300    -0.1700 c6         1 ECH      -0.065400
     31 C30        -12.6440    -0.8640    -0.3320 c6         1 ECH      -0.013800
     32 C31         13.9630     1.7330    -0.4880 c3         1 ECH      -0.080600
     33 C32         12.5860     1.9330     1.6220 c3         1 ECH      -0.080600
     34 C33         11.3970    -2.4450    -0.9690 c3         1 ECH      -0.056900
     35 C34          8.4820     2.0010    -1.6770 c3         1 ECH      -0.055900
     36 C35          3.1290     2.2410    -0.8470 c3         1 ECH      -0.056900
     37 C36         -2.5060    -2.5000     0.7100 c3         1 ECH      -0.054900
     38 C37         -7.8740    -2.5190     1.1810 c3         1 ECH      -0.053900
     39 C38        -10.4500     2.2530     0.8760 c3         1 ECH      -0.044900
     40 C39        -12.3360    -1.1800    -1.8290 c3         1 ECH      -0.083100
     41 C40        -12.7480    -2.2340     0.4150 c3         1 ECH      -0.083100
     42 H2          15.0750     0.6540     1.7400 hc         1 ECH       0.041700
     43 H2A         13.7670    -0.3570     2.3300 hc         1 ECH       0.041700
     44 H3          15.2520    -0.8090    -0.3280 hc         1 ECH       0.041700
     45 H3A         15.5320    -1.6990     1.1600 hc         1 ECH       0.041700
     46 H4          13.9780    -2.8400    -0.5110 hc         1 ECH       0.044700
     47 H4A         13.3590    -2.7210     1.1260 hc         1 ECH       0.044700
     48 H7          11.0340     1.6060    -0.8750 ha         1 ECH       0.173000
     49 H8           9.4850    -0.8250     0.1620 ha         1 ECH       0.173000
     50 H10          7.1810    -0.5180     0.3930 ha         1 ECH       0.169000
     51 H11          5.7820     1.8130    -1.1420 ha         1 ECH       0.173000
     52 H12          4.7570    -0.5960     0.4540 ha         1 ECH       0.170000
     53 H14          2.4610    -1.0080     0.3040 ha         1 ECH       0.169000
     54 H15          0.5440     1.2490    -0.7040 ha         1 ECH       0.172000
     55 H16          0.0790    -1.5010     0.5610 ha         1 ECH       0.173000
     56 H17         -1.8400     0.7490    -0.4450 ha         1 ECH       0.169000
     57 H19         -4.1380     0.3350    -0.5960 ha         1 ECH       0.170000
     58 H20         -5.1520    -2.0700     1.0130 ha         1 ECH       0.176000
     59 H21         -6.5580     0.3380    -0.3820 ha         1 ECH       0.169000
     60 H23         -8.8920     0.3500    -0.5850 ha         1 ECH       0.176000
     61 H24        -10.3780    -1.5330     1.3250 ha         1 ECH       0.182000
     62 H28        -14.9560     1.8210    -0.6270 hc         1 ECH       0.070700
     63 H28A       -13.8230     1.2240    -1.8370 hc         1 ECH       0.070700
     64 H29        -14.2660    -0.0660     0.8980 hc         1 ECH       0.049200
     65 H29A       -14.8140    -0.7140    -0.6400 hc         1 ECH       0.049200
     66 H31         14.7820     2.3180    -0.0530 hc         1 ECH       0.034033
     67 H31A        14.3890     1.0960    -1.2720 hc         1 ECH       0.034033
     68 H31B        13.2860     2.4370    -0.9850 hc         1 ECH       0.034033
     69 H32         12.0080     1.4330     2.4090 hc         1 ECH       0.034033
     70 H32A        13.3680     2.5250     2.1120 hc         1 ECH       0.034033
     71 H32B        11.9130     2.6370     1.1190 hc         1 ECH       0.034033
     72 H33         11.9570    -3.1480    -1.5960 hc         1 ECH       0.041367
     73 H33A        10.8290    -3.0310    -0.2380 hc         1 ECH       0.041367
     74 H33B        10.6840    -1.9430    -1.6310 hc         1 ECH       0.041367
     75 H34          9.3490     1.9100    -2.3400 hc         1 ECH       0.042033
     76 H34A         7.6140     2.0790    -2.3410 hc         1 ECH       0.042033
     77 H34B         8.5730     2.9480    -1.1320 hc         1 ECH       0.042033
     78 H35          3.1290     2.2840    -1.9430 hc         1 ECH       0.043033
     79 H35A         2.1970     2.6920    -0.4930 hc         1 ECH       0.043033
     80 H35B         3.9270     2.8990    -0.4840 hc         1 ECH       0.043033
     81 H36         -2.5180    -2.5450     1.8050 hc         1 ECH       0.042700
     82 H36A        -3.2990    -3.1580     0.3370 hc         1 ECH       0.042700
     83 H36B        -1.5690    -2.9520     0.3670 hc         1 ECH       0.042700
     84 H37         -7.9050    -2.4050     2.2710 hc         1 ECH       0.042700
     85 H37A        -8.7800    -3.0520     0.8720 hc         1 ECH       0.042700
     86 H37B        -7.0440    -3.1920     0.9380 hc         1 ECH       0.042700
     87 H38         -9.7390     2.5740     0.1060 hc         1 ECH       0.047700
     88 H38A       -10.8530     3.1580     1.3460 hc         1 ECH       0.047700
     89 H38B        -9.8860     1.7310     1.6570 hc         1 ECH       0.047700
     90 H39        -11.4270    -1.7850    -1.9300 hc         1 ECH       0.038367
     91 H39A       -13.1560    -1.7360    -2.2990 hc         1 ECH       0.038367
     92 H39B       -12.1740    -0.2670    -2.4140 hc         1 ECH       0.038367
     93 H40        -12.8360    -2.0910     1.4990 hc         1 ECH       0.038367
     94 H40A       -13.6300    -2.7970     0.0880 hc         1 ECH       0.038367
     95 H40B       -11.8800    -2.8780     0.2300 hc         1 ECH       0.038367
@<TRIPOS>BOND
     1     1     2 1   
     2     1     6 1   
     3     1    32 1   
     4     1    33 1   
     5     2     3 1   
     6     2    42 1   
     7     2    43 1   
     8     3     4 1   
     9     3    44 1   
    10     3    45 1   
    11     4     5 1   
    12     4    46 1   
    13     4    47 1   
    14     5     6 2   
    15     5    34 1   
    16     6     7 1   
    17     7     8 2   
    18     7    48 1   
    19     8     9 1   
    20     8    49 1   
    21     9    10 2   
    22     9    35 1   
    23    10    11 1   
    24    10    50 1   
    25    11    12 2   
    26    11    51 1   
    27    12    13 1   
    28    12    52 1   
    29    13    14 2   
    30    13    36 1   
    31    14    15 1   
    32    14    53 1   
    33    15    16 2   
    34    15    54 1   
    35    16    17 1   
    36    16    55 1   
    37    17    18 2   
    38    17    56 1   
    39    18    19 1   
    40    18    37 1   
    41    19    20 2   
    42    19    57 1   
    43    20    21 1   
    44    20    58 1   
    45    21    22 2   
    46    21    59 1   
    47    22    23 1   
    48    22    38 1   
    49    23    24 2   
    50    23    60 1   
    51    24    25 1   
    52    24    61 1   
    53    25    26 2   
    54    25    31 1   
    55    26    27 1   
    56    26    39 1   
    57    27    28 2   
    58    27    29 1   
    59    29    30 1   
    60    29    62 1   
    61    29    63 1   
    62    30    31 1   
    63    30    64 1   
    64    30    65 1   
    65    31    40 1   
    66    31    41 1   
    67    32    66 1   
    68    32    67 1   
    69    32    68 1   
    70    33    69 1   
    71    33    70 1   
    72    33    71 1   
    73    34    72 1   
    74    34    73 1   
    75    34    74 1   
    76    35    75 1   
    77    35    76 1   
    78    35    77 1   
    79    36    78 1   
    80    36    79 1   
    81    36    80 1   
    82    37    81 1   
    83    37    82 1   
    84    37    83 1   
    85    38    84 1   
    86    38    85 1   
    87    38    86 1   
    88    39    87 1   
    89    39    88 1   
    90    39    89 1   
    91    40    90 1   
    92    40    91 1   
    93    40    92 1   
    94    41    93 1   
    95    41    94 1   
    96    41    95 1   
@<TRIPOS>SUBSTRUCTURE
     1 ECH         1 TEMP              0 ****  ****    0 ROOT
