@<TRIPOS>MOLECULE
ECH
   95    96     1     0     0
SMALL
abcg2


@<TRIPOS>ATOM
      1 C1          12.7830     0.9620     0.7060 c6         1 ECH       0.000200
      2 C2          13.7570     0.1810     1.5950 c6         1 ECH      -0.068400
      3 C3          14.3920    -0.9890     0.8690 c6         1 ECH      -0.071400
      4 C4          13.3140    -1.9650     0.4300 c6         1 ECH      -0.041200
      5 C5          12.0950    -1.3110    -0.1660 c2         1 ECH      -0.095400
      6 C6          11.8390     0.0030    -0.0260 ce         1 ECH      -0.083200
      7 C7          10.6420     0.6490    -0.5800 ce         1 ECH      -0.154000
      8 C8           9.3800     0.2260    -0.4020 cf         1 ECH      -0.191000
      9 C9           8.1820     0.8840    -0.8930 cf         1 ECH      -0.056200
     10 C10          6.9840     0.3270    -0.5850 ce         1 ECH      -0.186000
     11 C11          5.6770     0.8120    -0.9290 ce         1 ECH      -0.165000
     12 C12          4.5470     0.1710    -0.5510 cf         1 ECH      -0.181000
     13 C13          3.1960     0.6010    -0.8230 cf         1 ECH      -0.057200
     14 C14          2.1780    -0.1840    -0.3800 ce         1 ECH      -0.182000
     15 C15          0.7730     0.0550    -0.5160 ce         1 ECH      -0.165000
     16 C16         -0.1690    -0.8000    -0.0490 cf         1 ECH      -0.177000
     17 C17         -1.5720    -0.5400    -0.1580 cf         1 ECH      -0.170000
     18 C18         -2.5950    -1.3150     0.2920 ce         1 ECH      -0.068200
     19 C19         -3.9390    -0.8230     0.1060 ce         1 ECH      -0.166000
     20 C20         -5.0760    -1.4350     0.5130 cf         1 ECH      -0.179000
     21 C21         -6.3660    -0.8400     0.3070 cf         1 ECH      -0.167000
     22 C22         -7.5760    -1.3330     0.6710 ce         1 ECH      -0.075200
     23 C23         -8.7380    -0.5140     0.3850 ce         1 ECH      -0.158000
     24 C24        -10.0150    -0.8310     0.6580 cf         1 ECH      -0.190000
     25 C25        -11.1490     0.0290     0.3150 cf         1 ECH      -0.012200
     26 C26        -11.1440     1.3580     0.5950 ce         1 ECH      -0.193400
     27 C27        -12.1740     2.2530     0.0340 c          1 ECH       0.570300
     28 O27        -12.1430     3.4540     0.2490 o          1 ECH      -0.532100
     29 C28        -13.2210     1.6490    -0.8580 c6         1 ECH      -0.178400
     30 C29        -13.5390     0.2330    -0.4240 c6         1 ECH      -0.065400
     31 C30        -12.2990    -0.6610    -0.4120 c6         1 ECH      -0.013800
     32 C31         13.5590     1.8010    -0.3180 c3         1 ECH      -0.080600
     33 C32         11.9830     1.9060     1.6130 c3         1 ECH      -0.080600
     34 C33         11.2130    -2.2740    -0.9090 c3         1 ECH      -0.056900
     35 C34          8.3370     2.1390    -1.6980 c3         1 ECH      -0.055900
     36 C35          2.9940     1.8810    -1.5770 c3         1 ECH      -0.056900
     37 C36         -2.4050    -2.6290     0.9870 c3         1 ECH      -0.054900
     38 C37         -7.7790    -2.6490     1.3560 c3         1 ECH      -0.053900
     39 C38        -10.1130     2.0460     1.4440 c3         1 ECH      -0.044900
     40 C39        -11.8460    -0.9740    -1.8460 c3         1 ECH      -0.083100
     41 C40        -12.6870    -1.9750     0.2780 c3         1 ECH      -0.083100
     42 H2          14.5210     0.8650     1.9760 hc         1 ECH       0.041700
     43 H2A         13.2140    -0.1940     2.4700 hc         1 ECH       0.041700
     44 H3          14.9460    -0.6340    -0.0050 hc         1 ECH       0.041700
     45 H3A         15.1170    -1.4940     1.5100 hc         1 ECH       0.041700
     46 H4          13.7250    -2.6800    -0.2890 hc         1 ECH       0.044700
     47 H4A         12.9940    -2.5730     1.2860 hc         1 ECH       0.044700
     48 H7          10.8110     1.5820    -1.1130 ha         1 ECH       0.173000
     49 H8           9.2140    -0.6730     0.1850 ha         1 ECH       0.173000
     50 H10          7.0020    -0.5880     0.0020 ha         1 ECH       0.169000
     51 H11          5.5990     1.7270    -1.5050 ha         1 ECH       0.173000
     52 H12          4.6480    -0.7500     0.0190 ha         1 ECH       0.170000
     53 H14          2.4490    -1.0980     0.1430 ha         1 ECH       0.169000
     54 H15          0.4400     0.9660    -1.0040 ha         1 ECH       0.172000
     55 H16          0.1620    -1.7140     0.4360 ha         1 ECH       0.173000
     56 H17         -1.8380     0.3940    -0.6470 ha         1 ECH       0.169000
     57 H19         -4.0300     0.1350    -0.4000 ha         1 ECH       0.170000
     58 H20         -5.0180    -2.3910     1.0200 ha         1 ECH       0.176000
     59 H21         -6.3570     0.1270    -0.1910 ha         1 ECH       0.169000
     60 H23         -8.5320     0.4330    -0.1050 ha         1 ECH       0.176000
     61 H24        -10.2390    -1.8010     1.0890 ha         1 ECH       0.182000
     62 H28        -14.1080     2.2840    -0.8530 hc         1 ECH       0.070700
     63 H28A       -12.8360     1.6610    -1.8840 hc         1 ECH       0.070700
     64 H29        -13.9720     0.2560     0.5810 hc         1 ECH       0.049200
     65 H29A       -14.2950    -0.2060    -1.0790 hc         1 ECH       0.049200
     66 H31         14.2200     2.5090     0.1900 hc         1 ECH       0.034033
     67 H31A        14.1710     1.1780    -0.9710 hc         1 ECH       0.034033
     68 H31B        12.8890     2.3820    -0.9540 hc         1 ECH       0.034033
     69 H32         11.3530     1.3470     2.3080 hc         1 ECH       0.034033
     70 H32A        12.6660     2.5220     2.2010 hc         1 ECH       0.034033
     71 H32B        11.3360     2.5810     1.0500 hc         1 ECH       0.034033
     72 H33         11.8220    -2.9520    -1.5120 hc         1 ECH       0.041367
     73 H33A        10.6460    -2.9020    -0.2170 hc         1 ECH       0.041367
     74 H33B        10.4970    -1.7870    -1.5670 hc         1 ECH       0.041367
     75 H34          8.9010     1.9450    -2.6130 hc         1 ECH       0.042033
     76 H34A         7.3860     2.5780    -1.9870 hc         1 ECH       0.042033
     77 H34B         8.8920     2.8960    -1.1410 hc         1 ECH       0.042033
     78 H35          3.3930     1.8000    -2.5900 hc         1 ECH       0.043033
     79 H35A         1.9490     2.1660    -1.6590 hc         1 ECH       0.043033
     80 H35B         3.5220     2.7060    -1.0950 hc         1 ECH       0.043033
     81 H36         -2.7690    -2.5810     2.0160 hc         1 ECH       0.042700
     82 H36A        -2.9700    -3.4190     0.4890 hc         1 ECH       0.042700
     83 H36B        -1.3650    -2.9430     1.0210 hc         1 ECH       0.042700
     84 H37         -8.2500    -2.5140     2.3320 hc         1 ECH       0.042700
     85 H37A        -8.4400    -3.2940     0.7730 hc         1 ECH       0.042700
     86 H37B        -6.8480    -3.1900     1.5110 hc         1 ECH       0.042700
     87 H38         -9.4130     2.6340     0.8470 hc         1 ECH       0.047700
     88 H38A       -10.5950     2.7400     2.1330 hc         1 ECH       0.047700
     89 H38B        -9.5310     1.3410     2.0310 hc         1 ECH       0.047700
     90 H39        -10.9800    -1.6370    -1.8490 hc         1 ECH       0.038367
     91 H39A       -12.6500    -1.4680    -2.3960 hc         1 ECH       0.038367
     92 H39B       -11.5690    -0.0720    -2.3940 hc         1 ECH       0.038367
     93 H40        -12.8990    -1.8260     1.3390 hc         1 ECH       0.038367
     94 H40A       -13.5910    -2.3690    -0.1890 hc         1 ECH       0.038367
     95 H40B       -11.9190    -2.7430     0.1880 hc         1 ECH       0.038367
@<TRIPOS>BOND
     1     1     2 1   
     2     1     6 1   
     3     1    32 1   
     4     1    33 1   
     5     2     3 1   
     6     2    42 1   
     7     2    43 1   
     8     3     4 1   
     9     3    44 1   
    10     3    45 1   
    11     4     5 1   
    12     4    46 1   
    13     4    47 1   
    14     5     6 2   
    15     5    34 1   
    16     6     7 1   
    17     7     8 2   
    18     7    48 1   
    19     8     9 1   
    20     8    49 1   
    21     9    10 2   
    22     9    35 1   
    23    10    11 1   
    24    10    50 1   
    25    11    12 2   
    26    11    51 1   
    27    12    13 1   
    28    12    52 1   
    29    13    14 2   
    30    13    36 1   
    31    14    15 1   
    32    14    53 1   
    33    15    16 2   
    34    15    54 1   
    35    16    17 1   
    36    16    55 1   
    37    17    18 2   
    38    17    56 1   
    39    18    19 1   
    40    18    37 1   
    41    19    20 2   
    42    19    57 1   
    43    20    21 1   
    44    20    58 1   
    45    21    22 2   
    46    21    59 1   
    47    22    23 1   
    48    22    38 1   
    49    23    24 2   
    50    23    60 1   
    51    24    25 1   
    52    24    61 1   
    53    25    26 2   
    54    25    31 1   
    55    26    27 1   
    56    26    39 1   
    57    27    28 2   
    58    27    29 1   
    59    29    30 1   
    60    29    62 1   
    61    29    63 1   
    62    30    31 1   
    63    30    64 1   
    64    30    65 1   
    65    31    40 1   
    66    31    41 1   
    67    32    66 1   
    68    32    67 1   
    69    32    68 1   
    70    33    69 1   
    71    33    70 1   
    72    33    71 1   
    73    34    72 1   
    74    34    73 1   
    75    34    74 1   
    76    35    75 1   
    77    35    76 1   
    78    35    77 1   
    79    36    78 1   
    80    36    79 1   
    81    36    80 1   
    82    37    81 1   
    83    37    82 1   
    84    37    83 1   
    85    38    84 1   
    86    38    85 1   
    87    38    86 1   
    88    39    87 1   
    89    39    88 1   
    90    39    89 1   
    91    40    90 1   
    92    40    91 1   
    93    40    92 1   
    94    41    93 1   
    95    41    94 1   
    96    41    95 1   
@<TRIPOS>SUBSTRUCTURE
     1 ECH         1 TEMP              0 ****  ****    0 ROOT
