@<TRIPOS>MOLECULE
ECI
   71    76     1     0     0
SMALL
No Charge or Current Charge


@<TRIPOS>ATOM
      1 C10          9.2170    27.6550    76.3880 c5         1 ECI       0.161300
      2 C15          9.9270    24.1350    78.8710 c5         1 ECI       0.159300
      3 C17         10.7230    21.9210    79.1140 c5         1 ECI       0.282300
      4 C21          9.9780    21.3330    81.4900 ca         1 ECI       0.146500
      5 C22         10.2290    20.2400    82.2840 ca         1 ECI      -0.110600
      6 C26          8.7220    22.2530    83.1720 ca         1 ECI       0.193900
      7 C28          9.4730    21.8980    78.1660 c5         1 ECI       0.102300
      8 C02          4.6800    31.6340    76.4600 c          1 ECI       0.520500
      9 C03          5.4910    30.6250    75.7360 cc         1 ECI       0.101500
     10 C05          6.1800    28.9810    74.5270 cd         1 ECI       0.447400
     11 C07          8.7160    29.2730    74.7350 c5         1 ECI       0.310300
     12 C08          9.6660    29.0910    75.9650 c5         1 ECI       0.093300
     13 C14          9.6240    25.3770    79.7500 c3         1 ECI       0.206600
     14 C19         11.2850    19.8530    80.4510 cc         1 ECI       0.401700
     15 C23          9.6660    20.2110    83.5770 ca         1 ECI       0.447900
     16 C30          8.7260    23.1760    78.6880 c5         1 ECI       0.220300
     17 C38          9.1340    26.9520    74.9970 c5         1 ECI       0.125300
     18 C39          8.1590    25.7450    74.9080 c3         1 ECI       0.198600
     19 C42          6.8590    30.6710    75.7800 cd         1 ECI       0.129400
     20 C44          6.8130    32.5070    77.0880 cc         1 ECI       0.719800
     21 N04          5.0640    29.5780    74.9550 nc         1 ECI      -0.597000
     22 N06          7.3190    29.6160    75.0240 na         1 ECI      -0.185500
     23 N18         10.6410    21.0870    80.3150 na         1 ECI      -0.298300
     24 N20         11.0480    19.2980    81.6530 nd         1 ECI      -0.562100
     25 N24          9.8620    19.1780    84.4380 nv         1 ECI      -1.074900
     26 N25          8.9100    21.2210    84.0300 nb         1 ECI      -0.307000
     27 N27          9.2200    22.3630    81.9170 nb         1 ECI      -0.210000
     28 N43          7.5840    31.6450    76.4660 nd         1 ECI      -0.698100
     29 N45          7.4210    33.4590    77.7680 nv         1 ECI      -1.058200
     30 N46          5.4630    32.5330    77.1140 ns         1 ECI      -0.460400
     31 O09         11.0590    29.1430    75.5830 oh         1 ECI      -0.701000
     32 O11         10.2730    27.0500    77.1950 os         1 ECI      -0.553400
     33 O16         10.9460    23.3030    79.4890 os         1 ECI      -0.454000
     34 O29          9.8650    21.9850    76.7800 oh         1 ECI      -0.675000
     35 O31          7.8260    23.7650    77.7050 os         1 ECI      -0.554400
     36 O34          5.8370    23.8300    76.1380 o          1 ECI      -0.745000
     37 O35          7.3620    21.8750    76.0380 o          1 ECI      -0.745000
     38 O40          6.8350    26.0800    75.3640 oh         1 ECI      -0.747000
     39 O41          8.7780    27.9960    74.0440 os         1 ECI      -0.432000
     40 P12         10.6220    27.6330    78.6710 p5         1 ECI       1.142200
     41 P32          6.7250    22.9090    76.8970 p5         1 ECI       1.231800
     42 S33          5.7150    22.0870    78.5180 sh         1 ECI      -0.642200
     43 S36          8.8540    28.5350    79.3600 sh         1 ECI      -0.536200
     44 H101         8.2490    27.6380    76.9070 h1         1 ECI       0.098700
     45 H151        10.2910    24.4690    77.8900 h1         1 ECI       0.096700
     46 H171        11.6000    21.5510    78.5660 h2         1 ECI       0.066700
     47 H261         8.1090    23.0790    83.5270 h5         1 ECI       0.061100
     48 H281         8.8740    20.9910    78.3390 h1         1 ECI       0.090700
     49 H051         6.2380    28.1250    73.8640 h5         1 ECI       0.112100
     50 H071         9.0810    30.0770    74.0830 h2         1 ECI       0.099700
     51 H081         9.4550    29.8300    76.7480 h1         1 ECI       0.082700
     52 H142         9.5100    25.0640    80.7960 h1         1 ECI       0.063700
     53 H141         8.6680    25.8040    79.4230 h1         1 ECI       0.063700
     54 H191        11.8880    19.4250    79.6590 h5         1 ECI       0.057800
     55 H301         8.1910    22.9970    79.6290 h1         1 ECI       0.098700
     56 H381        10.1280    26.5840    74.7120 h1         1 ECI       0.057700
     57 H392         8.5770    24.9350    75.5180 h1         1 ECI       0.034200
     58 H391         8.1280    25.3880    73.8700 h1         1 ECI       0.034200
     59 H242         9.6950    19.3440    85.4270 hn         1 ECI       0.501000
     60 H241        10.5990    18.5170    84.2030 hn         1 ECI       0.501000
     61 H451         8.4150    33.2970    77.8760 hn         1 ECI       0.495000
     62 H452         6.9490    33.8100    78.5920 hn         1 ECI       0.495000
     63 H461         4.9930    33.2700    77.6140 hn         1 ECI       0.311500
     64 H091        11.4790    28.3450    75.9810 ho         1 ECI       0.505000
     65 H291         9.0030    21.9160    76.2750 ho         1 ECI       0.494000
     66 H401         6.3940    25.2090    75.6300 ho         1 ECI       0.579000
     67 H2           4.8690    23.1290    78.3480 hs         1 ECI       0.281800
     68 H3           9.6020    29.6410    79.5820 hs         1 ECI       0.304800
     69 O01          3.4580    31.6940    76.4920 o          1 ECI      -0.528000
     70 O13         10.7030    26.3250    79.6160 os         1 ECI      -0.556400
     71 O37         11.8130    28.5210    78.7180 o          1 ECI      -0.497000
@<TRIPOS>BOND
     1     1    12 1   
     2     1    17 1   
     3     1    32 1   
     4     1    44 1   
     5     2    13 1   
     6     2    16 1   
     7     2    33 1   
     8     2    45 1   
     9     3     7 1   
    10     3    23 1   
    11     3    33 1   
    12     3    46 1   
    13     4     5 ar  
    14     4    23 1   
    15     4    27 ar  
    16     5    15 ar  
    17     5    24 1   
    18     6    26 ar  
    19     6    27 ar  
    20     6    47 1   
    21     7    16 1   
    22     7    34 1   
    23     7    48 1   
    24     8     9 1   
    25     8    30 1   
    26     8    69 2   
    27     9    19 2   
    28     9    21 1   
    29    10    21 2   
    30    10    22 1   
    31    10    49 1   
    32    11    12 1   
    33    11    22 1   
    34    11    39 1   
    35    11    50 1   
    36    12    31 1   
    37    12    51 1   
    38    13    52 1   
    39    13    53 1   
    40    13    70 1   
    41    14    23 1   
    42    14    24 2   
    43    14    54 1   
    44    15    25 1   
    45    15    26 ar  
    46    16    35 1   
    47    16    55 1   
    48    17    18 1   
    49    17    39 1   
    50    17    56 1   
    51    18    38 1   
    52    18    57 1   
    53    18    58 1   
    54    19    22 1   
    55    19    28 1   
    56    20    28 2   
    57    20    29 1   
    58    20    30 1   
    59    25    59 1   
    60    25    60 1   
    61    29    61 1   
    62    29    62 1   
    63    30    63 1   
    64    31    64 1   
    65    32    40 1   
    66    34    65 1   
    67    35    41 1   
    68    36    41 1   
    69    37    41 1   
    70    38    66 1   
    71    40    43 1   
    72    40    70 1   
    73    40    71 2   
    74    41    42 1   
    75    42    67 1   
    76    43    68 1   
@<TRIPOS>SUBSTRUCTURE
     1 ECI         1 TEMP              0 ****  ****    0 ROOT
