@<TRIPOS>MOLECULE
ECI
   71    76     1     0     0
SMALL
abcg2


@<TRIPOS>ATOM
      1 C10          9.8360    27.7310    76.8420 c5         1 ECI       0.161300
      2 C15         10.6070    22.8150    77.8340 c5         1 ECI       0.159300
      3 C17          9.8680    20.7360    78.5800 c5         1 ECI       0.282300
      4 C21          9.5670    21.2330    81.0680 ca         1 ECI       0.146500
      5 C22          9.3930    20.3820    82.1480 ca         1 ECI      -0.110600
      6 C26          9.4730    23.0160    82.3570 ca         1 ECI       0.193900
      7 C28          8.6730    21.4350    77.9040 c5         1 ECI       0.102300
      8 C02          3.6890    31.0080    76.6650 c          1 ECI       0.520500
      9 C03          4.7750    30.0860    76.6640 cc         1 ECI       0.101500
     10 C05          6.0410    28.3910    76.7330 cd         1 ECI       0.447400
     11 C07          8.2730    29.4470    76.2470 c5         1 ECI       0.310300
     12 C08          9.1300    28.9620    77.4420 c5         1 ECI       0.093300
     13 C14         11.4030    23.9000    78.5360 c3         1 ECI       0.206600
     14 C19          9.5680    19.1330    80.4640 cc         1 ECI       0.401700
     15 C23          9.2540    20.9870    83.4120 ca         1 ECI       0.447900
     16 C30          9.0870    22.9040    77.9940 c5         1 ECI       0.220300
     17 C38          9.8400    28.0490    75.3510 c5         1 ECI       0.125300
     18 C39         10.0880    26.9030    74.3870 c3         1 ECI       0.198600
     19 C42          6.0480    30.5640    76.4200 cd         1 ECI       0.129400
     20 C44          5.4400    32.6770    76.1770 cc         1 ECI       0.719800
     21 N04          4.7940    28.7270    76.8540 nc         1 ECI      -0.597000
     22 N06          6.8570    29.4680    76.4730 na         1 ECI      -0.185500
     23 N18          9.6750    20.4100    79.9800 na         1 ECI      -0.298300
     24 N20          9.3950    19.0710    81.7480 nd         1 ECI      -0.562100
     25 N24          9.0800    20.2840    84.5310 nv         1 ECI      -1.074900
     26 N25          9.3000    22.3220    83.4770 nb         1 ECI      -0.307000
     27 N27          9.6160    22.5630    81.1250 nb         1 ECI      -0.210000
     28 N43          6.4340    31.8230    76.1800 nd         1 ECI      -0.698100
     29 N45          5.6700    33.9700    75.9120 nv         1 ECI      -1.058200
     30 N46          4.1460    32.3080    76.4050 ns         1 ECI      -0.460400
     31 O09         10.0120    29.9980    77.7630 oh         1 ECI      -0.701000
     32 O11         11.1610    27.5560    77.3190 os         1 ECI      -0.553400
     33 O16         10.9740    21.5810    78.4320 os         1 ECI      -0.454000
     34 O29          8.6110    21.0810    76.5510 oh         1 ECI      -0.675000
     35 O31          8.5530    23.7390    77.0110 os         1 ECI      -0.554400
     36 O34          7.0340    25.3800    75.9710 o          1 ECI      -0.745000
     37 O35          6.0090    23.2460    77.1190 o          1 ECI      -0.745000
     38 O40          9.5280    25.6700    74.7230 oh         1 ECI      -0.747000
     39 O41          8.5390    28.5860    75.1700 os         1 ECI      -0.432000
     40 P12         11.6030    26.5340    78.4590 p5         1 ECI       1.142200
     41 P32          7.0310    24.3280    77.0470 p5         1 ECI       1.231800
     42 S33          6.8670    25.2420    78.9720 sh         1 ECI      -0.642200
     43 S36         10.2910    26.7550    80.0740 sh         1 ECI      -0.536200
     44 H101         9.2240    26.8430    77.0180 h1         1 ECI       0.098700
     45 H151        10.8670    22.8070    76.7670 h1         1 ECI       0.096700
     46 H171        10.0590    19.7770    78.0900 h2         1 ECI       0.066700
     47 H261         9.5040    24.0950    82.4740 h5         1 ECI       0.061100
     48 H281         7.7370    21.2240    78.4310 h1         1 ECI       0.090700
     49 H051         6.4290    27.3830    76.7860 h5         1 ECI       0.112100
     50 H071         8.5650    30.4770    76.0150 h2         1 ECI       0.099700
     51 H081         8.5050    28.6840    78.2970 h1         1 ECI       0.082700
     52 H142        12.4720    23.6880    78.4710 h1         1 ECI       0.063700
     53 H141        11.1140    23.9500    79.5880 h1         1 ECI       0.063700
     54 H191         9.6300    18.2820    79.7990 h5         1 ECI       0.057800
     55 H301         8.8520    23.2740    78.9970 h1         1 ECI       0.098700
     56 H381        10.5970    28.8210    75.1470 h1         1 ECI       0.057700
     57 H392        11.1700    26.7600    74.3360 h1         1 ECI       0.034200
     58 H391         9.7800    27.2480    73.3890 h1         1 ECI       0.034200
     59 H242         8.9800    20.7520    85.4150 hn         1 ECI       0.501000
     60 H241         9.0390    19.2800    84.5130 hn         1 ECI       0.501000
     61 H451         6.6270    34.2780    75.8790 hn         1 ECI       0.495000
     62 H452         4.9750    34.6740    76.0920 hn         1 ECI       0.495000
     63 H461         3.4290    33.0230    76.3790 hn         1 ECI       0.311500
     64 H091        10.4600    29.7910    78.5890 ho         1 ECI       0.505000
     65 H291         8.2520    20.1900    76.4810 ho         1 ECI       0.494000
     66 H401         8.6070    25.7410    75.0340 ho         1 ECI       0.579000
     67 H2           7.7170    26.2640    78.8150 hs         1 ECI       0.281800
     68 H3          10.9820    27.7440    80.6590 hs         1 ECI       0.304800
     69 O01          2.5030    30.7940    76.8500 o          1 ECI      -0.528000
     70 O13         11.1190    25.1370    77.8670 os         1 ECI      -0.556400
     71 O37         13.0290    26.6900    78.7920 o          1 ECI      -0.497000
@<TRIPOS>BOND
     1     1    12 1   
     2     1    17 1   
     3     1    32 1   
     4     1    44 1   
     5     2    13 1   
     6     2    16 1   
     7     2    33 1   
     8     2    45 1   
     9     3     7 1   
    10     3    23 1   
    11     3    33 1   
    12     3    46 1   
    13     4     5 ar  
    14     4    23 1   
    15     4    27 ar  
    16     5    15 ar  
    17     5    24 1   
    18     6    26 ar  
    19     6    27 ar  
    20     6    47 1   
    21     7    16 1   
    22     7    34 1   
    23     7    48 1   
    24     8     9 1   
    25     8    30 1   
    26     8    69 2   
    27     9    19 2   
    28     9    21 1   
    29    10    21 2   
    30    10    22 1   
    31    10    49 1   
    32    11    12 1   
    33    11    22 1   
    34    11    39 1   
    35    11    50 1   
    36    12    31 1   
    37    12    51 1   
    38    13    52 1   
    39    13    53 1   
    40    13    70 1   
    41    14    23 1   
    42    14    24 2   
    43    14    54 1   
    44    15    25 1   
    45    15    26 ar  
    46    16    35 1   
    47    16    55 1   
    48    17    18 1   
    49    17    39 1   
    50    17    56 1   
    51    18    38 1   
    52    18    57 1   
    53    18    58 1   
    54    19    22 1   
    55    19    28 1   
    56    20    28 2   
    57    20    29 1   
    58    20    30 1   
    59    25    59 1   
    60    25    60 1   
    61    29    61 1   
    62    29    62 1   
    63    30    63 1   
    64    31    64 1   
    65    32    40 1   
    66    34    65 1   
    67    35    41 1   
    68    36    41 1   
    69    37    41 1   
    70    38    66 1   
    71    40    43 1   
    72    40    70 1   
    73    40    71 2   
    74    41    42 1   
    75    42    67 1   
    76    43    68 1   
@<TRIPOS>SUBSTRUCTURE
     1 ECI         1 TEMP              0 ****  ****    0 ROOT
