@<TRIPOS>MOLECULE
ECK
   90    93     1     0     0
SMALL
bcc


@<TRIPOS>ATOM
      1 C7         -33.9730    10.9370   -14.0910 c3         1 ECK      -0.075400
      2 C8         -34.4980    12.3360   -13.7820 c3         1 ECK      -0.076400
      3 C9         -34.6880    13.1610   -15.0520 c3         1 ECK      -0.104400
      4 O1         -29.7140    -0.1700   -10.0100 oh         1 ECK      -0.598800
      5 C5         -34.5050    10.0860   -11.7620 c3         1 ECK      -0.070400
      6 C6         -33.4500    10.1650   -12.8710 c3         1 ECK      -0.043700
      7 C4         -35.7810     9.3260   -12.1040 c3         1 ECK      -0.076400
      8 C3         -36.7080     9.2130   -10.9000 c3         1 ECK      -0.074400
      9 C2         -37.7280     6.9640   -11.4600 c3         1 ECK      -0.087100
     10 C          -38.9280     8.5540    -9.9430 c3         1 ECK      -0.087100
     11 C10        -35.2140    14.5920   -14.8620 c3         1 ECK       0.161800
     12 C11        -35.1930    15.3070   -16.2080 c3         1 ECK      -0.101600
     13 C12        -36.6370    14.5920   -14.3030 c3         1 ECK      -0.101600
     14 C13        -32.8790     8.8090   -13.3160 c5         1 ECK      -0.051700
     15 C14        -31.7170     8.9850   -14.3330 c5         1 ECK      -0.078400
     16 C15        -30.7460     7.8070   -14.1200 c5         1 ECK      -0.072400
     17 C16        -31.4980     6.8920   -13.1620 c5         1 ECK      -0.064700
     18 C17        -30.7150     5.8140   -12.4340 c6         1 ECK      -0.043700
     19 C18        -30.0120     4.8940   -13.4250 c6         1 ECK      -0.038200
     20 C19        -29.5200     3.6350   -12.7930 c2         1 ECK      -0.164200
     21 C20        -29.8890     3.1940   -11.5910 c2         1 ECK      -0.112400
     22 C21        -29.2920     1.9330   -11.0230 c6         1 ECK      -0.035200
     23 C22        -30.3630     0.9520   -10.5730 c6         1 ECK       0.149100
     24 C23        -31.3080     1.6350    -9.5970 c6         1 ECK      -0.110400
     25 C24        -31.9350     2.8670   -10.2360 c6         1 ECK      -0.063400
     26 C25        -30.9100     3.9130   -10.7250 c6         1 ECK       0.003200
     27 C26        -30.1830     4.5380    -9.5220 c3         1 ECK      -0.079100
     28 C27        -31.6610     4.9920   -11.5460 c6         1 ECK      -0.046700
     29 C28        -32.5550     5.8890   -10.6800 c6         1 ECK      -0.071400
     30 C29        -33.2710     6.9890   -11.4680 c6         1 ECK      -0.063400
     31 C30        -32.2820     7.8520   -12.2520 c5         1 ECK      -0.036000
     32 C31        -31.3590     8.6210   -11.2990 c3         1 ECK      -0.078100
     33 H1         -34.7550    10.3560   -14.5940 hc         1 ECK       0.039200
     34 H2         -33.1650    11.0360   -14.8220 hc         1 ECK       0.039200
     35 H3         -33.7860    12.8340   -13.1140 hc         1 ECK       0.038200
     36 H4         -35.4410    12.2680   -13.2320 hc         1 ECK       0.038200
     37 H5         -35.3720    12.6320   -15.7240 hc         1 ECK       0.046700
     38 H6         -33.7280    13.2150   -15.5780 hc         1 ECK       0.046700
     39 H8         -38.5060     8.8790   -12.0110 hc         1 ECK       0.043700
     40 H9         -34.0570     9.6410   -10.8700 hc         1 ECK       0.037700
     41 H10        -34.7720    11.1030   -11.4600 hc         1 ECK       0.037700
     42 H11        -32.6150    10.7530   -12.4670 hc         1 ECK       0.045700
     43 H12        -36.3150     9.8280   -12.9180 hc         1 ECK       0.040200
     44 H13        -35.5300     8.3310   -12.4760 hc         1 ECK       0.040200
     45 H14        -36.1650     8.7420   -10.0700 hc         1 ECK       0.035700
     46 H15        -36.9620    10.2220   -10.5570 hc         1 ECK       0.035700
     47 H16        -38.6600     6.4170   -11.6160 hc         1 ECK       0.031533
     48 H17        -37.1210     6.8380   -12.3570 hc         1 ECK       0.031533
     49 H18        -37.1970     6.4860   -10.6330 hc         1 ECK       0.031533
     50 H19        -39.8680     8.0240   -10.1080 hc         1 ECK       0.031533
     51 H20        -38.4630     8.1300    -9.0490 hc         1 ECK       0.031533
     52 H21        -39.1680     9.5970    -9.7270 hc         1 ECK       0.031533
     53 H22        -34.4020    14.9720   -13.1240 ho         1 ECK       0.400000
     54 H23        -34.1820    15.3430   -16.6190 hc         1 ECK       0.041200
     55 H24        -35.8270    14.7860   -16.9260 hc         1 ECK       0.041200
     56 H25        -35.5620    16.3300   -16.1170 hc         1 ECK       0.041200
     57 H26        -36.6830    14.1470   -13.3070 hc         1 ECK       0.041200
     58 H27        -37.0200    15.6120   -14.2290 hc         1 ECK       0.041200
     59 H28        -37.3100    14.0260   -14.9470 hc         1 ECK       0.041200
     60 H29        -33.6810     8.2550   -13.8210 hc         1 ECK       0.045700
     61 H30        -31.2100     9.9400   -14.1720 hc         1 ECK       0.040700
     62 H31        -32.0940     9.0110   -15.3560 hc         1 ECK       0.040700
     63 H32        -30.4880     7.3070   -15.0560 hc         1 ECK       0.042200
     64 H33        -29.8050     8.1420   -13.6770 hc         1 ECK       0.042200
     65 H34        -32.2580     6.3660   -13.7620 hc         1 ECK       0.042700
     66 H35        -29.9450     6.2840   -11.8080 hc         1 ECK       0.054700
     67 H36        -29.1740     5.4180   -13.8960 hc         1 ECK       0.046700
     68 H37        -30.6950     4.6450   -14.2490 hc         1 ECK       0.046700
     69 H38        -28.8060     3.0480   -13.3660 ha         1 ECK       0.121000
     70 H39        -28.6400     1.4660   -11.7660 hc         1 ECK       0.057700
     71 H40        -28.6620     2.1680   -10.1570 hc         1 ECK       0.057700
     72 H41        -30.9460     0.6530   -11.4600 h1         1 ECK       0.030700
     73 H42        -32.0990     0.9430    -9.2910 hc         1 ECK       0.045200
     74 H43        -30.7590     1.9050    -8.6900 hc         1 ECK       0.045200
     75 H44        -32.6230     3.3320    -9.5270 hc         1 ECK       0.041700
     76 H45        -32.5410     2.5500   -11.0910 hc         1 ECK       0.041700
     77 H46        -30.8830     4.8430    -8.7440 hc         1 ECK       0.035033
     78 H47        -29.4800     3.8450    -9.0600 hc         1 ECK       0.035033
     79 H48        -29.6140     5.4190    -9.8240 hc         1 ECK       0.035033
     80 H49        -32.3280     4.4550   -12.2390 hc         1 ECK       0.044700
     81 H50        -33.3100     5.2820   -10.1740 hc         1 ECK       0.039700
     82 H51        -31.9660     6.3510    -9.8860 hc         1 ECK       0.039700
     83 H52        -33.8740     7.5800   -10.7750 hc         1 ECK       0.041200
     84 H53        -33.9710     6.5270   -12.1750 hc         1 ECK       0.041200
     85 H54        -30.7470     7.9560   -10.6910 hc         1 ECK       0.032700
     86 H55        -30.6780     9.2910   -11.8270 hc         1 ECK       0.032700
     87 H56        -31.9390     9.2370   -10.6080 hc         1 ECK       0.032700
     88 H7         -30.3890    -0.8020    -9.7430 ho         1 ECK       0.402000
     89 C1         -37.9990     8.4320   -11.1460 c3         1 ECK      -0.059700
     90 O          -34.3530    15.3410   -14.0120 oh         1 ECK      -0.599800
@<TRIPOS>BOND
     1     1     2 1   
     2     1     6 1   
     3     1    33 1   
     4     1    34 1   
     5     2     3 1   
     6     2    35 1   
     7     2    36 1   
     8     3    11 1   
     9     3    37 1   
    10     3    38 1   
    11     4    23 1   
    12     4    88 1   
    13     5     6 1   
    14     5     7 1   
    15     5    40 1   
    16     5    41 1   
    17     6    14 1   
    18     6    42 1   
    19     7     8 1   
    20     7    43 1   
    21     7    44 1   
    22     8    45 1   
    23     8    46 1   
    24     8    89 1   
    25     9    47 1   
    26     9    48 1   
    27     9    49 1   
    28     9    89 1   
    29    10    50 1   
    30    10    51 1   
    31    10    52 1   
    32    10    89 1   
    33    11    12 1   
    34    11    13 1   
    35    11    90 1   
    36    12    54 1   
    37    12    55 1   
    38    12    56 1   
    39    13    57 1   
    40    13    58 1   
    41    13    59 1   
    42    14    15 1   
    43    14    31 1   
    44    14    60 1   
    45    15    16 1   
    46    15    61 1   
    47    15    62 1   
    48    16    17 1   
    49    16    63 1   
    50    16    64 1   
    51    17    18 1   
    52    17    31 1   
    53    17    65 1   
    54    18    19 1   
    55    18    28 1   
    56    18    66 1   
    57    19    20 1   
    58    19    67 1   
    59    19    68 1   
    60    20    21 2   
    61    20    69 1   
    62    21    22 1   
    63    21    26 1   
    64    22    23 1   
    65    22    70 1   
    66    22    71 1   
    67    23    24 1   
    68    23    72 1   
    69    24    25 1   
    70    24    73 1   
    71    24    74 1   
    72    25    26 1   
    73    25    75 1   
    74    25    76 1   
    75    26    27 1   
    76    26    28 1   
    77    27    77 1   
    78    27    78 1   
    79    27    79 1   
    80    28    29 1   
    81    28    80 1   
    82    29    30 1   
    83    29    81 1   
    84    29    82 1   
    85    30    31 1   
    86    30    83 1   
    87    30    84 1   
    88    31    32 1   
    89    32    85 1   
    90    32    86 1   
    91    32    87 1   
    92    39    89 1   
    93    53    90 1   
@<TRIPOS>SUBSTRUCTURE
     1 ECK         1 TEMP              0 ****  ****    0 ROOT
