@<TRIPOS>MOLECULE
ECK
   90    93     1     0     0
SMALL
No Charge or Current Charge


@<TRIPOS>ATOM
      1 C7         -33.9280    11.0340   -14.1020 c3         1 ECK      -0.075400
      2 C8         -34.5080    12.4470   -13.8400 c3         1 ECK      -0.076400
      3 C9         -34.8370    13.2100   -15.1520 c3         1 ECK      -0.104400
      4 O1         -30.0580    -0.4450   -10.0890 oh         1 ECK      -0.661000
      5 C5         -34.5030    10.1670   -11.7340 c3         1 ECK      -0.070400
      6 C6         -33.4100    10.2610   -12.8430 c3         1 ECK      -0.043700
      7 C4         -35.7630     9.3450   -12.1040 c3         1 ECK      -0.076400
      8 C3         -36.7390     9.1830   -10.9150 c3         1 ECK      -0.074400
      9 C2         -37.7900     6.9490   -11.6800 c3         1 ECK      -0.087100
     10 C          -39.0300     8.4630   -10.0540 c3         1 ECK      -0.087100
     11 C10        -35.4040    14.6520   -14.9920 c3         1 ECK       0.185000
     12 C11        -35.6360    15.2880   -16.3830 c3         1 ECK      -0.101600
     13 C12        -36.7160    14.6860   -14.1700 c3         1 ECK      -0.101600
     14 C13        -32.7330     8.8930   -13.2530 c5         1 ECK      -0.051700
     15 C14        -31.5200     9.1060   -14.2400 c5         1 ECK      -0.078400
     16 C15        -30.5510     7.9060   -14.0230 c5         1 ECK      -0.072400
     17 C16        -31.3720     6.9600   -13.1200 c5         1 ECK      -0.064700
     18 C17        -30.5850     5.8140   -12.4230 c6         1 ECK      -0.043700
     19 C18        -29.9560     4.8370   -13.4480 c6         1 ECK      -0.038200
     20 C19        -29.5510     3.5000   -12.8420 c2         1 ECK      -0.214200
     21 C20        -29.9330     3.0340   -11.6350 c2         1 ECK      -0.112400
     22 C21        -29.4380     1.6670   -11.1470 c6         1 ECK      -0.035200
     23 C22        -30.5830     0.7800   -10.6090 c6         1 ECK       0.172300
     24 C23        -31.3650     1.5270    -9.5080 c6         1 ECK      -0.110400
     25 C24        -31.9320     2.8610   -10.0500 c6         1 ECK      -0.063400
     26 C25        -30.8460     3.8160   -10.6580 c6         1 ECK       0.003200
     27 C26        -29.9190     4.3770    -9.5260 c3         1 ECK      -0.079100
     28 C27        -31.5690     5.0070   -11.4500 c6         1 ECK      -0.046700
     29 C28        -32.4430     5.9460   -10.5100 c6         1 ECK      -0.071400
     30 C29        -33.1210     7.0960   -11.3060 c6         1 ECK      -0.063400
     31 C30        -32.1020     7.9470   -12.1450 c5         1 ECK      -0.036000
     32 C31        -31.1580     8.7250   -11.1650 c3         1 ECK      -0.078100
     33 H1         -34.6830    10.4280   -14.6180 hc         1 ECK       0.039200
     34 H2         -33.1020    11.1550   -14.8120 hc         1 ECK       0.039200
     35 H3         -33.7880    13.0220   -13.2450 hc         1 ECK       0.038200
     36 H4         -35.4250    12.3530   -13.2490 hc         1 ECK       0.038200
     37 H5         -35.5560    12.6140   -15.7270 hc         1 ECK       0.046700
     38 H6         -33.9260    13.2580   -15.7620 hc         1 ECK       0.046700
     39 H8         -38.5320     8.9250   -12.0850 hc         1 ECK       0.043700
     40 H9         -34.0550     9.7750   -10.8190 hc         1 ECK       0.037700
     41 H10        -34.8180    11.1760   -11.4470 hc         1 ECK       0.037700
     42 H11        -32.6160    10.8860   -12.4150 hc         1 ECK       0.045700
     43 H12        -36.2890     9.8360   -12.9310 hc         1 ECK       0.040200
     44 H13        -35.4590     8.3580   -12.4620 hc         1 ECK       0.040200
     45 H14        -36.2200     8.6760   -10.0910 hc         1 ECK       0.035700
     46 H15        -37.0020    10.1840   -10.5480 hc         1 ECK       0.035700
     47 H16        -38.7380     6.4240   -11.8460 hc         1 ECK       0.031533
     48 H17        -37.2240     6.9060   -12.6180 hc         1 ECK       0.031533
     49 H18        -37.2280     6.4050   -10.9110 hc         1 ECK       0.031533
     50 H19        -39.9750     7.9670   -10.3090 hc         1 ECK       0.031533
     51 H20        -38.6060     7.9630    -9.1750 hc         1 ECK       0.031533
     52 H21        -39.2590     9.5010    -9.7820 hc         1 ECK       0.031533
     53 H22        -34.2390    15.0000   -13.4690 ho         1 ECK       0.439000
     54 H23        -34.7070    15.3060   -16.9660 hc         1 ECK       0.041200
     55 H24        -36.3810    14.7180   -16.9510 hc         1 ECK       0.041200
     56 H25        -35.9960    16.3190   -16.2890 hc         1 ECK       0.041200
     57 H26        -36.5530    14.3640   -13.1350 hc         1 ECK       0.041200
     58 H27        -37.1300    15.7010   -14.1390 hc         1 ECK       0.041200
     59 H28        -37.4700    14.0270   -14.6190 hc         1 ECK       0.041200
     60 H29        -33.5140     8.3370   -13.7860 hc         1 ECK       0.045700
     61 H30        -30.9960    10.0490   -14.0490 hc         1 ECK       0.040700
     62 H31        -31.8650     9.1480   -15.2800 hc         1 ECK       0.040700
     63 H32        -30.2700     7.4300   -14.9690 hc         1 ECK       0.042200
     64 H33        -29.6200     8.2210   -13.5370 hc         1 ECK       0.042200
     65 H34        -32.1140     6.4410   -13.7400 hc         1 ECK       0.042700
     66 H35        -29.7740     6.2510   -11.8270 hc         1 ECK       0.054700
     67 H36        -29.0780     5.3100   -13.9090 hc         1 ECK       0.046700
     68 H37        -30.6630     4.6410   -14.2660 hc         1 ECK       0.046700
     69 H38        -28.8960     2.8990   -13.4750 ha         1 ECK       0.171000
     70 H39        -28.9210     1.1350   -11.9570 hc         1 ECK       0.057700
     71 H40        -28.6860     1.8110   -10.3600 hc         1 ECK       0.057700
     72 H41        -31.2710     0.5650   -11.4410 h1         1 ECK       0.030700
     73 H42        -32.1930     0.9010    -9.1500 hc         1 ECK       0.045200
     74 H43        -30.7190     1.7120    -8.6390 hc         1 ECK       0.045200
     75 H44        -32.4720     3.3650    -9.2380 hc         1 ECK       0.041700
     76 H45        -32.6860     2.6290   -10.8150 hc         1 ECK       0.041700
     77 H46        -30.4920     4.8720    -8.7350 hc         1 ECK       0.035033
     78 H47        -29.3410     3.5880    -9.0350 hc         1 ECK       0.035033
     79 H48        -29.1950     5.1010    -9.9160 hc         1 ECK       0.035033
     80 H49        -32.2930     4.5240   -12.1230 hc         1 ECK       0.044700
     81 H50        -33.2280     5.3630   -10.0110 hc         1 ECK       0.039700
     82 H51        -31.8310     6.3780    -9.7110 hc         1 ECK       0.039700
     83 H52        -33.6750     7.7120   -10.5920 hc         1 ECK       0.041200
     84 H53        -33.8730     6.6590   -11.9770 hc         1 ECK       0.041200
     85 H54        -30.5260     8.0540   -10.5730 hc         1 ECK       0.032700
     86 H55        -30.4850     9.4150   -11.6850 hc         1 ECK       0.032700
     87 H56        -31.7360     9.3270   -10.4560 hc         1 ECK       0.032700
     88 H7         -30.8290    -0.9770    -9.7940 ho         1 ECK       0.441000
     89 C1         -38.0460     8.4130   -11.2450 c3         1 ECK      -0.059700
     90 O          -34.4370    15.4540   -14.3140 oh         1 ECK      -0.662000
@<TRIPOS>BOND
     1     1     2 1   
     2     1     6 1   
     3     1    33 1   
     4     1    34 1   
     5     2     3 1   
     6     2    35 1   
     7     2    36 1   
     8     3    11 1   
     9     3    37 1   
    10     3    38 1   
    11     4    23 1   
    12     4    88 1   
    13     5     6 1   
    14     5     7 1   
    15     5    40 1   
    16     5    41 1   
    17     6    14 1   
    18     6    42 1   
    19     7     8 1   
    20     7    43 1   
    21     7    44 1   
    22     8    45 1   
    23     8    46 1   
    24     8    89 1   
    25     9    47 1   
    26     9    48 1   
    27     9    49 1   
    28     9    89 1   
    29    10    50 1   
    30    10    51 1   
    31    10    52 1   
    32    10    89 1   
    33    11    12 1   
    34    11    13 1   
    35    11    90 1   
    36    12    54 1   
    37    12    55 1   
    38    12    56 1   
    39    13    57 1   
    40    13    58 1   
    41    13    59 1   
    42    14    15 1   
    43    14    31 1   
    44    14    60 1   
    45    15    16 1   
    46    15    61 1   
    47    15    62 1   
    48    16    17 1   
    49    16    63 1   
    50    16    64 1   
    51    17    18 1   
    52    17    31 1   
    53    17    65 1   
    54    18    19 1   
    55    18    28 1   
    56    18    66 1   
    57    19    20 1   
    58    19    67 1   
    59    19    68 1   
    60    20    21 2   
    61    20    69 1   
    62    21    22 1   
    63    21    26 1   
    64    22    23 1   
    65    22    70 1   
    66    22    71 1   
    67    23    24 1   
    68    23    72 1   
    69    24    25 1   
    70    24    73 1   
    71    24    74 1   
    72    25    26 1   
    73    25    75 1   
    74    25    76 1   
    75    26    27 1   
    76    26    28 1   
    77    27    77 1   
    78    27    78 1   
    79    27    79 1   
    80    28    29 1   
    81    28    80 1   
    82    29    30 1   
    83    29    81 1   
    84    29    82 1   
    85    30    31 1   
    86    30    83 1   
    87    30    84 1   
    88    31    32 1   
    89    32    85 1   
    90    32    86 1   
    91    32    87 1   
    92    39    89 1   
    93    53    90 1   
@<TRIPOS>SUBSTRUCTURE
     1 ECK         1 TEMP              0 ****  ****    0 ROOT
