@<TRIPOS>MOLECULE
ECL
   39    41     1     0     0
SMALL
bcc


@<TRIPOS>ATOM
      1 C1          -2.3640    -0.5810    -0.7010 ca         1 ECL      -0.096300
      2 N1          -0.0300     2.9540     1.1530 na         1 ECL      -0.186900
      3 C2          -3.2460     0.4040    -0.2610 ca         1 ECL      -0.100500
      4 CL2         -6.6950    -1.5620     0.0880 cl         1 ECL      -0.111400
      5 C3          -1.1960     2.8760     1.8290 cc         1 ECL       0.404400
      6 C5           2.9760    -2.1080     0.6610 ca         1 ECL      -0.122000
      7 C6          -1.3250     4.6170     0.6150 cd         1 ECL       0.297200
      8 C7          -0.1030     4.0660     0.3600 cc         1 ECL      -0.273600
      9 C8          -0.9290    -0.2430    -0.9770 c3         1 ECL       0.184700
     10 C9          -4.1750    -2.1850    -0.6520 ca         1 ECL      -0.124000
     11 C10         -2.8420    -1.8720    -0.8870 ca         1 ECL      -0.100500
     12 C11         -5.0300    -1.1880    -0.2160 ca         1 ECL       0.034400
     13 C13         -4.5770     0.1090    -0.0160 ca         1 ECL      -0.124000
     14 C14          4.1460    -1.7870    -0.0060 ca         1 ECL       0.039400
     15 C15          4.2800    -0.5850    -0.6800 ca         1 ECL      -0.117000
     16 C16          3.2100     0.2970    -0.6770 ca         1 ECL       0.041400
     17 C17          2.0130     0.0100    -0.0290 ca         1 ECL      -0.123300
     18 C19          1.0210     1.9680     1.1490 c3         1 ECL       0.047300
     19 N19         -1.9990     3.8660     1.5380 nd         1 ECL      -0.680000
     20 C20          0.8510     0.9790    -0.0050 c3         1 ECL       0.178400
     21 O20         -0.3760     0.3370     0.1870 os         1 ECL      -0.404600
     22 C21          1.9260    -1.2050     0.6430 ca         1 ECL      -0.094000
     23 H2          -2.8980     1.4180    -0.1050 ha         1 ECL       0.142500
     24 H3          -1.3980     2.0780     2.5290 h5         1 ECL       0.058100
     25 H5           2.8800    -3.0460     1.1890 ha         1 ECL       0.156000
     26 H6          -1.7460     5.5160     0.1910 h4         1 ECL       0.037100
     27 H7           0.7040     4.3630    -0.2890 h4         1 ECL       0.173000
     28 H8          -0.3800    -1.1440    -1.2770 h1         1 ECL       0.038200
     29 H8A         -0.8670     0.4650    -1.8130 h1         1 ECL       0.038200
     30 H9          -4.5340    -3.1940    -0.8030 ha         1 ECL       0.151000
     31 H10         -2.1700    -2.6540    -1.2200 ha         1 ECL       0.142500
     32 H13         -5.2560     0.8810     0.3220 ha         1 ECL       0.151000
     33 H15          5.1960    -0.3370    -1.1980 ha         1 ECL       0.166000
     34 H19          1.9840     2.4720     1.0740 h1         1 ECL       0.076200
     35 H19A         1.0070     1.4340     2.1000 h1         1 ECL       0.076200
     36 H20          0.8340     1.5440    -0.9480 h1         1 ECL       0.064700
     37 H21          1.0110    -1.4600     1.1620 ha         1 ECL       0.157000
     38 CL4          5.4680    -2.9010    -0.0040 cl         1 ECL      -0.092400
     39 CL8          3.4100     1.8040    -1.5140 cl         1 ECL      -0.105400
@<TRIPOS>BOND
     1     1     3 ar  
     2     1     9 1   
     3     1    11 ar  
     4     2     5 1   
     5     2     8 1   
     6     2    18 1   
     7     3    13 ar  
     8     3    23 1   
     9     4    12 1   
    10     5    19 2   
    11     5    24 1   
    12     6    14 ar  
    13     6    22 ar  
    14     6    25 1   
    15     7     8 2   
    16     7    19 1   
    17     7    26 1   
    18     8    27 1   
    19     9    21 1   
    20     9    28 1   
    21     9    29 1   
    22    10    11 ar  
    23    10    12 ar  
    24    10    30 1   
    25    11    31 1   
    26    12    13 ar  
    27    13    32 1   
    28    14    15 ar  
    29    14    38 1   
    30    15    16 ar  
    31    15    33 1   
    32    16    17 ar  
    33    16    39 1   
    34    17    20 1   
    35    17    22 ar  
    36    18    20 1   
    37    18    34 1   
    38    18    35 1   
    39    20    21 1   
    40    20    36 1   
    41    22    37 1   
@<TRIPOS>SUBSTRUCTURE
     1 ECL         1 TEMP              0 ****  ****    0 ROOT
