@<TRIPOS>MOLECULE
ECL
   39    41     1     0     0
SMALL
No Charge or Current Charge


@<TRIPOS>ATOM
      1 C1          -2.3450    -0.6520    -0.8250 ca         1 ECL      -0.096300
      2 N1           0.0690     3.1910     1.3160 na         1 ECL      -0.165500
      3 C2          -3.4810     0.1710    -0.9590 ca         1 ECL      -0.082500
      4 Cl2         -6.5160    -2.3280     0.0280 cl         1 ECL      -0.203000
      5 C3          -1.2700     3.1230     1.6460 cc         1 ECL       0.404400
      6 C5           2.7370    -2.0820     0.7040 ca         1 ECL      -0.104000
      7 C6          -0.8110     5.1950     1.2470 cd         1 ECL       0.231900
      8 C7           0.3630     4.5130     1.0570 cc         1 ECL      -0.241000
      9 C8          -0.9580    -0.0910    -1.1020 c3         1 ECL       0.207900
     10 C9          -3.7840    -2.5080    -0.1620 ca         1 ECL      -0.106000
     11 C10         -2.5010    -1.9930    -0.4230 ca         1 ECL      -0.082500
     12 C11         -4.9130    -1.6840    -0.3000 ca         1 ECL       0.126000
     13 C13         -4.7630    -0.3460    -0.6970 ca         1 ECL      -0.106000
     14 C14          3.8130    -1.9820    -0.1900 ca         1 ECL       0.131000
     15 C15          3.9300    -0.8630    -1.0260 ca         1 ECL      -0.099000
     16 C16          2.9700     0.1600    -0.9760 ca         1 ECL       0.133000
     17 C17          1.8740     0.0690    -0.0850 ca         1 ECL      -0.123300
     18 C19          1.0050     2.0550     1.2460 c3         1 ECL       0.076600
     19 N19         -1.8220     4.3290     1.6140 nd         1 ECL      -0.680000
     20 C20          0.8080     1.1700    -0.0040 c3         1 ECL       0.201600
     21 O20         -0.4990     0.5680     0.0890 os         1 ECL      -0.451000
     22 C21          1.7730    -1.0610     0.7590 ca         1 ECL      -0.076000
     23 H2          -3.3700     1.2100    -1.2620 ha         1 ECL       0.124500
     24 H3          -1.7640     2.1910     1.8960 h5         1 ECL       0.058100
     25 H5           2.6500    -2.9490     1.3540 ha         1 ECL       0.138000
     26 H6          -0.9850     6.2590     1.1390 h4         1 ECL       0.037100
     27 H7           1.3460     4.8640     0.7680 h4         1 ECL       0.155000
     28 H8          -0.2820    -0.9080    -1.3870 h1         1 ECL       0.038200
     29 H8A         -1.0090     0.6150    -1.9420 h1         1 ECL       0.038200
     30 H9          -3.9030    -3.5430     0.1490 ha         1 ECL       0.133000
     31 H10         -1.6300    -2.6360    -0.3100 ha         1 ECL       0.124500
     32 H13         -5.6380     0.2910    -0.8010 ha         1 ECL       0.133000
     33 H15          4.7690    -0.7870    -1.7130 ha         1 ECL       0.148000
     34 H19          2.0300     2.4470     1.2430 h1         1 ECL       0.076200
     35 H19A         0.8870     1.4420     2.1480 h1         1 ECL       0.076200
     36 H20          0.8510     1.8190    -0.8870 h1         1 ECL       0.064700
     37 H21          0.9430    -1.1510     1.4580 ha         1 ECL       0.139000
     38 Cl4          5.0200    -3.2600    -0.2570 cl         1 ECL      -0.184000
     39 Cl8          3.1850     1.5510    -2.0400 cl         1 ECL      -0.197000
@<TRIPOS>BOND
     1     1     3 ar  
     2     1     9 1   
     3     1    11 ar  
     4     2     5 1   
     5     2     8 1   
     6     2    18 1   
     7     3    13 ar  
     8     3    23 1   
     9     4    12 1   
    10     5    19 2   
    11     5    24 1   
    12     6    14 ar  
    13     6    22 ar  
    14     6    25 1   
    15     7     8 2   
    16     7    19 1   
    17     7    26 1   
    18     8    27 1   
    19     9    21 1   
    20     9    28 1   
    21     9    29 1   
    22    10    11 ar  
    23    10    12 ar  
    24    10    30 1   
    25    11    31 1   
    26    12    13 ar  
    27    13    32 1   
    28    14    15 ar  
    29    14    38 1   
    30    15    16 ar  
    31    15    33 1   
    32    16    17 ar  
    33    16    39 1   
    34    17    20 1   
    35    17    22 ar  
    36    18    20 1   
    37    18    34 1   
    38    18    35 1   
    39    20    21 1   
    40    20    36 1   
    41    22    37 1   
@<TRIPOS>SUBSTRUCTURE
     1 ECL         1 TEMP              0 ****  ****    0 ROOT
