@<TRIPOS>MOLECULE
ECM
   88    94     1     0     0
SMALL
No Charge or Current Charge


@<TRIPOS>ATOM
      1 C10          3.5150     1.8620    -0.4880 c3         1 ECM       0.163600
      2 C13         -0.3440     1.2850    -0.7910 cc         1 ECM      -0.088400
      3 C15         -0.5150    -1.2160    -0.1860 c          1 ECM       0.583200
      4 C17         -1.0130    -3.5590     0.5460 ca         1 ECM      -0.104000
      5 C20          0.0070    -6.0100     1.5710 ca         1 ECM      -0.014000
      6 C21         -0.5080    -5.9190     0.2680 ca         1 ECM      -0.061800
      7 C22         -0.9550    -4.7270    -0.2620 ca         1 ECM      -0.051200
      8 C26         -0.6560    -6.9360    -0.7450 cc         1 ECM      -0.160400
      9 C02          7.7940     2.4270    -0.5430 ca         1 ECM      -0.025800
     10 C03          8.4390     2.7920     0.6610 ca         1 ECM       0.075000
     11 C05          7.6890     2.9650     1.8470 ca         1 ECM      -0.025800
     12 C06          8.3640     3.3590     3.1560 c3         1 ECM      -0.046800
     13 C07          6.2950     2.7700     1.8160 ca         1 ECM      -0.174000
     14 C08          5.6460     2.4070     0.6280 ca         1 ECM       0.165100
     15 C11          2.0390     1.7620    -0.0610 c3         1 ECM      -0.080400
     16 C12          1.1010     1.3780    -1.2230 c3         1 ECM       0.001800
     17 C14         -1.0860     0.1680    -0.3820 cd         1 ECM      -0.116300
     18 C18         -0.4100    -3.6180     1.8220 ca         1 ECM      -0.103000
     19 C19          0.0770    -4.8350     2.3410 ca         1 ECM      -0.180000
     20 C25         -1.1520    -6.2970    -1.8760 cd         1 ECM      -0.164100
     21 C27         -0.3450    -8.3940    -0.6710 c          1 ECM       0.733200
     22 C30         -2.8520    -2.1460    -0.3620 c3         1 ECM       0.110000
     23 C31         -3.7390    -1.4150     0.6610 c3         1 ECM      -0.112400
     24 C32         -3.1740    -0.0390     1.0560 c3         1 ECM       0.074600
     25 C35         -2.4780     1.9500    -0.3480 ca         1 ECM      -0.010200
     26 C36         -1.2430     2.4030    -0.7270 ca         1 ECM      -0.113800
     27 C37         -0.9940     3.7520    -1.0110 ca         1 ECM      -0.047000
     28 C38         -2.0660     4.6540    -0.9190 ca         1 ECM      -0.148000
     29 C39         -3.3590     4.1970    -0.5900 ca         1 ECM       0.145000
     30 C41         -3.5970     2.8220    -0.3180 ca         1 ECM      -0.005000
     31 C42         -4.9650     2.3310    -0.1130 cc         1 ECM      -0.166000
     32 C43         -5.7000     2.6750     0.9850 cd         1 ECM      -0.111300
     33 C44         -5.3940     3.6080     2.1340 c3         1 ECM      -0.033800
     34 C48         -5.6630     1.2890    -0.7540 cc         1 ECM       0.282300
     35 C49         -5.1920     0.6130    -2.0150 c3         1 ECM      -0.121400
     36 C50          6.3980     2.2360    -0.5530 ca         1 ECM      -0.174000
     37 N16         -1.4400    -2.2710     0.0680 n          1 ECM      -0.228400
     38 N23         -1.3090    -4.9210    -1.6060 na         1 ECM      -0.103700
     39 N34         -2.3930     0.5950    -0.0270 na         1 ECM      -0.066700
     40 N45         -6.8470     1.8720     0.8970 na         1 ECM       0.128800
     41 N47         -6.8170     1.0050    -0.1880 nd         1 ECM      -0.529800
     42 O09          4.2790     2.2330     0.6720 os         1 ECM      -0.344100
     43 O28         -0.5410    -9.0800    -1.6660 o          1 ECM      -0.728000
     44 O29          0.0910    -8.8660     0.3690 o          1 ECM      -0.728000
     45 O33          0.6890    -1.4440    -0.2170 o          1 ECM      -0.522000
     46 Cl40        -4.6800     5.3680    -0.6530 cl         1 ECM      -0.218000
     47 H1           3.8490     0.8930    -0.8800 h1         1 ECM       0.035200
     48 H2           3.6170     2.6180    -1.2770 h1         1 ECM       0.035200
     49 H3           0.3730    -6.9500     1.9740 ha         1 ECM       0.151000
     50 H4          -2.4610    -3.5220    -2.6940 h1         1 ECM       0.033033
     51 H5          -0.7650    -3.0200    -2.3720 h1         1 ECM       0.033033
     52 H6          -1.1160    -4.2600    -3.5980 h1         1 ECM       0.033033
     53 H7           9.1070     3.1580    -2.1150 hc         1 ECM       0.047200
     54 H8           9.3380     1.4450    -1.7190 hc         1 ECM       0.047200
     55 H9           7.9410     1.9540    -2.6720 hc         1 ECM       0.047200
     56 H10          8.8760     4.3240     3.0610 hc         1 ECM       0.047200
     57 H11          7.6420     3.4510     3.9760 hc         1 ECM       0.047200
     58 H12          9.1070     2.6110     3.4570 hc         1 ECM       0.047200
     59 H13          5.7060     2.8990     2.7200 ha         1 ECM       0.126000
     60 H14          1.9470     1.0160     0.7370 hc         1 ECM       0.065700
     61 H15          1.7190     2.7240     0.3580 hc         1 ECM       0.065700
     62 H16          1.4350     0.4400    -1.6810 hc         1 ECM       0.049200
     63 H17          1.1940     2.1310    -2.0150 hc         1 ECM       0.049200
     64 H18         -0.3530    -2.7210     2.4340 ha         1 ECM       0.088000
     65 H19          0.5030    -4.8680     3.3410 ha         1 ECM       0.096000
     66 H20         -1.3580    -6.7150    -2.8570 h4         1 ECM       0.215000
     67 H21         -3.2710    -3.1490    -0.5170 h1         1 ECM       0.058700
     68 H22         -2.8930    -1.6300    -1.3300 h1         1 ECM       0.058700
     69 H23         -4.7420    -1.2940     0.2370 hc         1 ECM       0.059700
     70 H24         -3.8520    -2.0300     1.5620 hc         1 ECM       0.059700
     71 H25         -3.9740     0.6140     1.4160 h1         1 ECM       0.066200
     72 H26         -2.4860    -0.1820     1.8990 h1         1 ECM       0.066200
     73 H27         -0.0030     4.0960    -1.2990 ha         1 ECM       0.118000
     74 H28         -1.9060     5.7060    -1.1450 ha         1 ECM       0.123000
     75 H29         -5.9900     4.5250     2.0640 hc         1 ECM       0.053367
     76 H30         -5.6190     3.1360     3.0980 hc         1 ECM       0.053367
     77 H31         -4.3370     3.8950     2.1530 hc         1 ECM       0.053367
     78 H32         -8.3110     2.8910     2.0200 h1         1 ECM       0.054033
     79 H33         -8.8140     1.2880     1.4080 h1         1 ECM       0.054033
     80 H34         -7.6700     1.4020     2.7780 h1         1 ECM       0.054033
     81 H35         -4.1500     0.8540    -2.2480 hc         1 ECM       0.050033
     82 H36         -5.2780    -0.4760    -1.9350 hc         1 ECM       0.050033
     83 H37         -5.8030     0.9330    -2.8670 hc         1 ECM       0.050033
     84 H38          5.9130     1.9550    -1.4830 ha         1 ECM       0.126000
     85 C24         -1.4210    -3.8610    -2.6230 c3         1 ECM       0.076900
     86 C46         -7.9820     1.8620     1.8330 c3         1 ECM       0.073900
     87 C01          8.5870     2.2350    -1.8320 c3         1 ECM      -0.046800
     88 Cl04        10.1930     3.0340     0.6840 cl         1 ECM      -0.227000
@<TRIPOS>BOND
     1     1    15 1   
     2     1    42 1   
     3     1    47 1   
     4     1    48 1   
     5     2    16 1   
     6     2    17 2   
     7     2    26 1   
     8     3    17 1   
     9     3    37 1   
    10     3    45 2   
    11     4     7 ar  
    12     4    18 ar  
    13     4    37 1   
    14     5     6 ar  
    15     5    19 ar  
    16     5    49 1   
    17     6     7 ar  
    18     6     8 1   
    19     7    38 1   
    20     8    20 2   
    21     8    21 1   
    22     9    10 ar  
    23     9    36 ar  
    24     9    87 1   
    25    10    11 ar  
    26    10    88 1   
    27    11    12 1   
    28    11    13 ar  
    29    12    56 1   
    30    12    57 1   
    31    12    58 1   
    32    13    14 ar  
    33    13    59 1   
    34    14    36 ar  
    35    14    42 1   
    36    15    16 1   
    37    15    60 1   
    38    15    61 1   
    39    16    62 1   
    40    16    63 1   
    41    17    39 1   
    42    18    19 ar  
    43    18    64 1   
    44    19    65 1   
    45    20    38 1   
    46    20    66 1   
    47    21    43 1   
    48    21    44 1   
    49    22    23 1   
    50    22    37 1   
    51    22    67 1   
    52    22    68 1   
    53    23    24 1   
    54    23    69 1   
    55    23    70 1   
    56    24    39 1   
    57    24    71 1   
    58    24    72 1   
    59    25    26 ar  
    60    25    30 ar  
    61    25    39 1   
    62    26    27 ar  
    63    27    28 ar  
    64    27    73 1   
    65    28    29 ar  
    66    28    74 1   
    67    29    30 ar  
    68    29    46 1   
    69    30    31 1   
    70    31    32 2   
    71    31    34 1   
    72    32    33 1   
    73    32    40 1   
    74    33    75 1   
    75    33    76 1   
    76    33    77 1   
    77    34    35 1   
    78    34    41 2   
    79    35    81 1   
    80    35    82 1   
    81    35    83 1   
    82    36    84 1   
    83    38    85 1   
    84    40    41 1   
    85    40    86 1   
    86    50    85 1   
    87    51    85 1   
    88    52    85 1   
    89    53    87 1   
    90    54    87 1   
    91    55    87 1   
    92    78    86 1   
    93    79    86 1   
    94    80    86 1   
@<TRIPOS>SUBSTRUCTURE
     1 ECM         1 TEMP              0 ****  ****    0 ROOT
