@<TRIPOS>MOLECULE
ECM
   88    94     1     0     0
SMALL
bcc


@<TRIPOS>ATOM
      1 C10          3.3840     1.5950    -0.3940 c3         1 ECM       0.140400
      2 C13         -0.4100     1.0580    -0.6300 cc         1 ECM      -0.088400
      3 C15         -0.7360    -1.2750     0.3410 c          1 ECM       0.725700
      4 C17         -1.3070    -3.5840     0.5820 ca         1 ECM      -0.011400
      5 C20         -0.7900    -6.1910     1.5510 ca         1 ECM      -0.032000
      6 C21         -0.3160    -5.8080     0.2910 ca         1 ECM      -0.061800
      7 C22         -0.5800    -4.5010    -0.1850 ca         1 ECM      -0.051200
      8 C26          0.4400    -6.4810    -0.7240 cc         1 ECM      -0.160400
      9 C02          7.5650     2.0260    -0.7390 ca         1 ECM      -0.025800
     10 C03          8.2320     2.5990     0.3370 ca         1 ECM      -0.016600
     11 C05          7.5700     3.0060     1.4970 ca         1 ECM      -0.025800
     12 C06          8.3000     3.6250     2.6490 c3         1 ECM      -0.046800
     13 C07          6.1970     2.8250     1.5570 ca         1 ECM      -0.192000
     14 C08          5.4960     2.2550     0.4950 ca         1 ECM       0.165100
     15 C11          1.9390     1.5770     0.0580 c3         1 ECM      -0.080400
     16 C12          1.0270     1.0070    -1.0290 c3         1 ECM       0.001800
     17 C14         -1.1730     0.0890    -0.0360 cd         1 ECM      -0.116300
     18 C18         -1.7590    -3.9910     1.8230 ca         1 ECM      -0.121000
     19 C19         -1.5050    -5.2820     2.3040 ca         1 ECM      -0.198000
     20 C25          0.5890    -5.5740    -1.7350 cd         1 ECM      -0.114100
     21 C27          0.9810    -7.8760    -0.7270 c          1 ECM       0.943800
     22 C30         -2.8690    -2.0800    -0.6140 c3         1 ECM       0.110000
     23 C31         -3.9470    -1.4230     0.2340 c3         1 ECM      -0.112400
     24 C32         -3.4000    -0.2180     0.9880 c3         1 ECM       0.045300
     25 C35         -2.5440     1.8330    -0.2750 ca         1 ECM      -0.010200
     26 C36         -1.2740     2.1790    -0.7920 ca         1 ECM      -0.113800
     27 C37         -1.0600     3.4480    -1.3370 ca         1 ECM      -0.065000
     28 C38         -2.0970     4.3500    -1.3560 ca         1 ECM      -0.166000
     29 C39         -3.3500     3.9780    -0.8480 ca         1 ECM       0.053400
     30 C41         -3.6270     2.7320    -0.3050 ca         1 ECM      -0.005000
     31 C42         -4.9820     2.3820     0.1340 cc         1 ECM      -0.231300
     32 C43         -5.5860     2.6630     1.3430 cd         1 ECM      -0.060600
     33 C44         -5.0520     3.3710     2.5330 c3         1 ECM      -0.033800
     34 C48         -5.9620     1.7020    -0.6170 cc         1 ECM       0.347600
     35 C49         -5.8420     1.2060    -2.0160 c3         1 ECM      -0.121400
     36 C50          6.1830     1.8590    -0.6460 ca         1 ECM      -0.192000
     37 N16         -1.6170    -2.2810     0.1120 n          1 ECM      -0.388000
     38 N23         -0.0160    -4.3890    -1.4310 na         1 ECM      -0.074400
     39 N34         -2.4590     0.5480     0.1870 na         1 ECM      -0.037400
     40 N45         -6.8250     2.1410     1.2670 na         1 ECM       0.107400
     41 N47         -7.0700     1.5650     0.0860 nd         1 ECM      -0.529800
     42 O09          4.1670     2.1280     0.6630 os         1 ECM      -0.320900
     43 O28          1.6050    -8.2320    -1.7480 o          1 ECM      -0.833300
     44 O29          0.7660    -8.5680     0.2910 o          1 ECM      -0.833300
     45 O33          0.3770    -1.4690     0.8060 o          1 ECM      -0.597500
     46 CL40        -4.6240     5.1540    -0.9360 cl         1 ECM      -0.126400
     47 H1           3.7160     0.5810    -0.6440 h1         1 ECM       0.035200
     48 H2           3.4950     2.2110    -1.2950 h1         1 ECM       0.035200
     49 H3          -0.5940    -7.1870     1.9190 ha         1 ECM       0.169000
     50 H4          -1.0080    -2.8930    -2.5350 h1         1 ECM       0.033033
     51 H5           0.5710    -2.4150    -1.8750 h1         1 ECM       0.033033
     52 H6           0.4750    -3.5240    -3.2370 h1         1 ECM       0.033033
     53 H7           8.7910     2.4290    -2.4610 hc         1 ECM       0.047200
     54 H8           9.0510     0.8450    -1.7560 hc         1 ECM       0.047200
     55 H9           7.5950     1.1560    -2.6960 hc         1 ECM       0.047200
     56 H10          8.8000     4.5490     2.3540 hc         1 ECM       0.047200
     57 H11          7.6130     3.8580     3.4600 hc         1 ECM       0.047200
     58 H12          9.0690     2.9580     3.0420 hc         1 ECM       0.047200
     59 H13          5.6570     3.1360     2.4420 ha         1 ECM       0.144000
     60 H14          1.8410     0.9670     0.9580 hc         1 ECM       0.065700
     61 H15          1.6220     2.5920     0.3130 hc         1 ECM       0.065700
     62 H16          1.3260    -0.0180    -1.2560 hc         1 ECM       0.049200
     63 H17          1.1590     1.5770    -1.9540 hc         1 ECM       0.049200
     64 H18         -2.3210    -3.2900     2.4280 ha         1 ECM       0.106000
     65 H19         -1.8780    -5.5620     3.2810 ha         1 ECM       0.114000
     66 H20          1.0990    -5.6890    -2.6790 h4         1 ECM       0.165000
     67 H21         -3.2050    -3.0520    -0.9710 h1         1 ECM       0.058700
     68 H22         -2.6690    -1.4800    -1.5040 h1         1 ECM       0.058700
     69 H23         -4.7730    -1.1330    -0.4190 hc         1 ECM       0.059700
     70 H24         -4.3550    -2.1270     0.9610 hc         1 ECM       0.059700
     71 H25         -4.2060     0.4260     1.3200 h1         1 ECM       0.066200
     72 H26         -2.8800    -0.5450     1.8910 h1         1 ECM       0.066200
     73 H27         -0.0920     3.7260    -1.7370 ha         1 ECM       0.136000
     74 H28         -1.9560     5.3400    -1.7670 ha         1 ECM       0.141000
     75 H29         -5.6510     4.2460     2.7900 hc         1 ECM       0.053367
     76 H30         -5.0180     2.7230     3.4100 hc         1 ECM       0.053367
     77 H31         -4.0380     3.7120     2.3320 hc         1 ECM       0.053367
     78 H32         -8.4960     3.0890     2.1180 h1         1 ECM       0.054033
     79 H33         -8.4820     1.3190     2.1960 h1         1 ECM       0.054033
     80 H34         -7.4280     2.2560     3.2560 h1         1 ECM       0.054033
     81 H35         -4.9870     0.5390    -2.1350 hc         1 ECM       0.050033
     82 H36         -6.7370     0.6630    -2.3150 hc         1 ECM       0.050033
     83 H37         -5.7010     2.0340    -2.7130 hc         1 ECM       0.050033
     84 H38          5.6680     1.4130    -1.4860 ha         1 ECM       0.144000
     85 C24         -0.0010    -3.2370    -2.3030 c3         1 ECM       0.047600
     86 C46         -7.8670     2.2110     2.2620 c3         1 ECM       0.044600
     87 C01          8.2870     1.5910    -1.9780 c3         1 ECM      -0.046800
     88 CL04         9.9560     2.8220     0.2350 cl         1 ECM      -0.135400
@<TRIPOS>BOND
     1     1    15 1   
     2     1    42 1   
     3     1    47 1   
     4     1    48 1   
     5     2    16 1   
     6     2    17 2   
     7     2    26 1   
     8     3    17 1   
     9     3    37 1   
    10     3    45 2   
    11     4     7 ar  
    12     4    18 ar  
    13     4    37 1   
    14     5     6 ar  
    15     5    19 ar  
    16     5    49 1   
    17     6     7 ar  
    18     6     8 1   
    19     7    38 1   
    20     8    20 2   
    21     8    21 1   
    22     9    10 ar  
    23     9    36 ar  
    24     9    87 1   
    25    10    11 ar  
    26    10    88 1   
    27    11    12 1   
    28    11    13 ar  
    29    12    56 1   
    30    12    57 1   
    31    12    58 1   
    32    13    14 ar  
    33    13    59 1   
    34    14    36 ar  
    35    14    42 1   
    36    15    16 1   
    37    15    60 1   
    38    15    61 1   
    39    16    62 1   
    40    16    63 1   
    41    17    39 1   
    42    18    19 ar  
    43    18    64 1   
    44    19    65 1   
    45    20    38 1   
    46    20    66 1   
    47    21    43 1   
    48    21    44 1   
    49    22    23 1   
    50    22    37 1   
    51    22    67 1   
    52    22    68 1   
    53    23    24 1   
    54    23    69 1   
    55    23    70 1   
    56    24    39 1   
    57    24    71 1   
    58    24    72 1   
    59    25    26 ar  
    60    25    30 ar  
    61    25    39 1   
    62    26    27 ar  
    63    27    28 ar  
    64    27    73 1   
    65    28    29 ar  
    66    28    74 1   
    67    29    30 ar  
    68    29    46 1   
    69    30    31 1   
    70    31    32 2   
    71    31    34 1   
    72    32    33 1   
    73    32    40 1   
    74    33    75 1   
    75    33    76 1   
    76    33    77 1   
    77    34    35 1   
    78    34    41 2   
    79    35    81 1   
    80    35    82 1   
    81    35    83 1   
    82    36    84 1   
    83    38    85 1   
    84    40    41 1   
    85    40    86 1   
    86    50    85 1   
    87    51    85 1   
    88    52    85 1   
    89    53    87 1   
    90    54    87 1   
    91    55    87 1   
    92    78    86 1   
    93    79    86 1   
    94    80    86 1   
@<TRIPOS>SUBSTRUCTURE
     1 ECM         1 TEMP              0 ****  ****    0 ROOT
