@<TRIPOS>MOLECULE
ECN
   39    41     1     0     0
SMALL
bcc


@<TRIPOS>ATOM
      1 C1           2.3600     0.5650     0.7200 ca         1 ECN      -0.096300
      2 C2           2.8440     1.8530     0.9070 ca         1 ECN      -0.100500
      3 C6           1.3310    -4.6070    -0.6330 cc         1 ECN       0.297200
      4 C7           0.1070    -4.0620    -0.3740 cd         1 ECN      -0.273600
      5 C9           4.5710    -0.1380     0.0440 ca         1 ECN      -0.124000
      6 C10          3.2380    -0.4250     0.2850 ca         1 ECN      -0.100500
      7 C11          5.0300     1.1570     0.2440 ca         1 ECN       0.034400
      8 CL2          6.6980     1.5220    -0.0540 cl         1 ECN      -0.111400
      9 C14         -3.2210    -0.3080     0.6750 ca         1 ECN       0.041400
     10 C15         -4.2910     0.5730     0.6820 ca         1 ECN      -0.117000
     11 C16         -4.1540     1.7830     0.0250 ca         1 ECN       0.039400
     12 C17         -2.9800     2.1130    -0.6320 ca         1 ECN      -0.122000
     13 CL8         -5.4770     2.8970     0.0290 cl         1 ECN      -0.092400
     14 N19          2.0020    -3.8480    -1.5500 nc         1 ECN      -0.680000
     15 C19         -1.0250    -1.9630    -1.1510 c3         1 ECN       0.047300
     16 C20         -0.8580    -0.9810     0.0090 c3         1 ECN       0.178400
     17 O20          0.3690    -0.3380    -0.1770 os         1 ECN      -0.404600
     18 C5          -2.0200    -0.0130     0.0370 ca         1 ECN      -0.123300
     19 N1           0.0300    -2.9460    -1.1610 na         1 ECN      -0.186900
     20 C3           1.1960    -2.8590    -1.8360 cd         1 ECN       0.404400
     21 C8           0.9210     0.2350     0.9910 c3         1 ECN       0.185700
     22 C13          4.1790     2.1590     0.6770 ca         1 ECN      -0.124000
     23 C21         -1.9300     1.2100    -0.6190 ca         1 ECN      -0.094000
     24 H2           2.1750     2.6390     1.2370 ha         1 ECN       0.142500
     25 H10          2.8850    -1.4380     0.1290 ha         1 ECN       0.142500
     26 H8C1         0.8530    -0.4770     1.8240 h1         1 ECN       0.038200
     27 H8C2         0.3760     1.1370     1.2920 h1         1 ECN       0.038200
     28 H13          4.5430     3.1660     0.8280 ha         1 ECN       0.151000
     29 H6           1.7550    -5.5060    -0.2130 h4         1 ECN       0.037100
     30 H7          -0.7000    -4.3670     0.2730 h4         1 ECN       0.173000
     31 H9           5.2460    -0.9130    -0.2910 ha         1 ECN       0.151000
     32 H15         -5.2100     0.3180     1.1920 ha         1 ECN       0.166000
     33 H17         -2.8820     3.0580    -1.1470 ha         1 ECN       0.156000
     34 H21         -1.0120     1.4720    -1.1290 ha         1 ECN       0.157000
     35 H3           1.3960    -2.0560    -2.5300 h5         1 ECN       0.058100
     36 H191        -1.9860    -2.4710    -1.0820 h1         1 ECN       0.076200
     37 H192        -1.0110    -1.4240    -2.0990 h1         1 ECN       0.076200
     38 H20         -0.8430    -1.5520     0.9490 h1         1 ECN       0.064700
     39 CL4         -3.4240    -1.8250     1.4920 cl         1 ECN      -0.105400
@<TRIPOS>BOND
     1     1     2 ar  
     2     1     6 ar  
     3     1    21 1   
     4     2    22 ar  
     5     2    24 1   
     6     3     4 2   
     7     3    14 1   
     8     3    29 1   
     9     4    19 1   
    10     4    30 1   
    11     5     6 ar  
    12     5     7 ar  
    13     5    31 1   
    14     6    25 1   
    15     7     8 1   
    16     7    22 ar  
    17     9    10 ar  
    18     9    18 ar  
    19     9    39 1   
    20    10    11 ar  
    21    10    32 1   
    22    11    12 ar  
    23    11    13 1   
    24    12    23 ar  
    25    12    33 1   
    26    14    20 2   
    27    15    16 1   
    28    15    19 1   
    29    15    36 1   
    30    15    37 1   
    31    16    17 1   
    32    16    18 1   
    33    16    38 1   
    34    17    21 1   
    35    18    23 ar  
    36    19    20 1   
    37    20    35 1   
    38    21    26 1   
    39    21    27 1   
    40    22    28 1   
    41    23    34 1   
@<TRIPOS>SUBSTRUCTURE
     1 ECN         1 TEMP              0 ****  ****    0 ROOT
