@<TRIPOS>MOLECULE
ECN
   39    41     1     0     0
SMALL
No Charge or Current Charge


@<TRIPOS>ATOM
      1 C1           2.3380     0.6400     0.8460 ca         1 ECN      -0.096300
      2 C2           2.4960     1.9830     0.4490 ca         1 ECN      -0.082500
      3 C6           0.8110    -5.1880    -1.2660 cc         1 ECN       0.231900
      4 C7          -0.3670    -4.5190    -1.0760 cd         1 ECN      -0.241000
      5 C9           4.7570     0.3350     0.7240 ca         1 ECN      -0.106000
      6 C10          3.4740    -0.1830     0.9800 ca         1 ECN      -0.082500
      7 C11          4.9070     1.6750     0.3320 ca         1 ECN       0.126000
      8 Cl2          6.5120     2.3210     0.0110 cl         1 ECN      -0.203000
      9 C14         -2.9760    -0.1710     0.9810 ca         1 ECN       0.133000
     10 C15         -3.9370     0.8530     1.0340 ca         1 ECN      -0.099000
     11 C16         -3.8170     1.9760     0.2030 ca         1 ECN       0.131000
     12 C17         -2.7400     2.0790    -0.6880 ca         1 ECN      -0.104000
     13 Cl8         -5.0240     3.2540     0.2750 cl         1 ECN      -0.184000
     14 N19          1.8180    -4.3330    -1.6160 nc         1 ECN      -0.680000
     15 C19         -1.0070    -2.0540    -1.2480 c3         1 ECN       0.076600
     16 C20         -0.8130    -1.1770     0.0070 c3         1 ECN       0.201600
     17 O20          0.4940    -0.5750    -0.0800 os         1 ECN      -0.451000
     18 C5          -1.8780    -0.0760     0.0920 ca         1 ECN      -0.123300
     19 N1          -0.0710    -3.1900    -1.3230 na         1 ECN      -0.165500
     20 C3           1.2780    -3.1200    -1.6460 cd         1 ECN       0.404400
     21 C8           0.9510     0.0790     1.1170 c3         1 ECN       0.208900
     22 C13          3.7790     2.4990     0.1930 ca         1 ECN      -0.106000
     23 C21         -1.7760     1.0580    -0.7460 ca         1 ECN      -0.076000
     24 H2           1.6250     2.6260     0.3350 ha         1 ECN       0.124500
     25 H10          3.3620    -1.2230     1.2790 ha         1 ECN       0.124500
     26 H8C1         0.9990    -0.6320     1.9520 h1         1 ECN       0.038200
     27 H8C2         0.2740     0.8940     1.4050 h1         1 ECN       0.038200
     28 H13          3.8990     3.5350    -0.1130 ha         1 ECN       0.133000
     29 H6           1.0020    -6.2500    -1.1710 h4         1 ECN       0.037100
     30 H7          -1.3490    -4.8820    -0.7960 h4         1 ECN       0.155000
     31 H9           5.6320    -0.3020     0.8280 ha         1 ECN       0.133000
     32 H15         -4.7760     0.7740     1.7190 ha         1 ECN       0.148000
     33 H17         -2.6520     2.9490    -1.3330 ha         1 ECN       0.138000
     34 H21         -0.9450     1.1510    -1.4430 ha         1 ECN       0.139000
     35 H3           1.7740    -2.1860    -1.8840 h5         1 ECN       0.058100
     36 H191        -2.0320    -2.4470    -1.2500 h1         1 ECN       0.076200
     37 H192        -0.8880    -1.4360    -2.1470 h1         1 ECN       0.076200
     38 H20         -0.8580    -1.8310     0.8870 h1         1 ECN       0.064700
     39 Cl4         -3.1940    -1.5660     2.0380 cl         1 ECN      -0.197000
@<TRIPOS>BOND
     1     1     2 ar  
     2     1     6 ar  
     3     1    21 1   
     4     2    22 ar  
     5     2    24 1   
     6     3     4 2   
     7     3    14 1   
     8     3    29 1   
     9     4    19 1   
    10     4    30 1   
    11     5     6 ar  
    12     5     7 ar  
    13     5    31 1   
    14     6    25 1   
    15     7     8 1   
    16     7    22 ar  
    17     9    10 ar  
    18     9    18 ar  
    19     9    39 1   
    20    10    11 ar  
    21    10    32 1   
    22    11    12 ar  
    23    11    13 1   
    24    12    23 ar  
    25    12    33 1   
    26    14    20 2   
    27    15    16 1   
    28    15    19 1   
    29    15    36 1   
    30    15    37 1   
    31    16    17 1   
    32    16    18 1   
    33    16    38 1   
    34    17    21 1   
    35    18    23 ar  
    36    19    20 1   
    37    20    35 1   
    38    21    26 1   
    39    21    27 1   
    40    22    28 1   
    41    23    34 1   
@<TRIPOS>SUBSTRUCTURE
     1 ECN         1 TEMP              0 ****  ****    0 ROOT
