@<TRIPOS>MOLECULE
ECO
   50    53     1     0     0
SMALL
abcg2


@<TRIPOS>ATOM
      1 C1          55.8250    76.5260    32.6840 ca         1 ECO      -0.089000
      2 C2          55.0770    75.5970    33.3920 ca         1 ECO      -0.147000
      3 C3          55.0040    74.2830    32.9350 ca         1 ECO       0.117100
      4 O3          54.2640    73.3940    33.6660 oh         1 ECO      -0.551100
      5 C4          55.6770    73.9200    31.7800 ca         1 ECO      -0.166000
      6 C5          56.4200    74.8630    31.0600 ca         1 ECO      -0.061900
      7 C6          57.1010    74.4750    29.8090 ce         1 ECO       0.373900
      8 C7          58.1570    75.3720    29.2300 c6         1 ECO      -0.132700
      9 C8          58.5820    76.5040    30.1590 c6         1 ECO      -0.040700
     10 C9          57.3310    77.2010    30.7340 c6         1 ECO      -0.009400
     11 C10         56.5100    76.1910    31.5140 ca         1 ECO      -0.094300
     12 C11         57.6650    78.4720    31.5300 c6         1 ECO      -0.068400
     13 C12         58.6020    79.4280    30.7800 c6         1 ECO      -0.058400
     14 C13         59.8660    78.7100    30.3080 c5         1 ECO      -0.044000
     15 C14         59.4410    77.5210    29.4260 c5         1 ECO      -0.062700
     16 C15         60.7420    77.0680    28.7460 c5         1 ECO      -0.066400
     17 C16         61.5440    78.3850    28.5710 c5         1 ECO      -0.110400
     18 C17         60.7180    79.4790    29.2890 c5         1 ECO       0.165300
     19 O17         61.5060    80.4990    29.9090 oh         1 ECO      -0.664000
     20 C18         60.7310    78.2890    31.5060 c3         1 ECO      -0.070100
     21 N19         56.7290    73.3820    29.2480 n2         1 ECO      -0.325700
     22 O19         57.4370    73.1280    28.0720 os         1 ECO      -0.278000
     23 C19         56.9890    71.8980    27.5000 c3         1 ECO       0.012600
     24 C20         57.7080    71.5950    26.1740 c          1 ECO       0.718000
     25 O20         58.5140    72.4330    25.7110 o          1 ECO      -0.721000
     26 O21         57.3860    70.4890    25.6710 o          1 ECO      -0.721000
     27 HC1         55.8710    77.5370    33.0620 ha         1 ECO       0.106000
     28 HC2         54.5570    75.8780    34.2990 ha         1 ECO       0.117000
     29 HO3         54.2920    72.5230    33.2490 ho         1 ECO       0.462000
     30 HC4         55.6300    72.8970    31.4280 ha         1 ECO       0.136000
     31 HC71        57.7660    75.7940    28.2960 hc         1 ECO       0.076700
     32 HC72        59.0130    74.7600    28.9410 hc         1 ECO       0.076700
     33 HC8         59.1500    76.0750    30.9920 hc         1 ECO       0.054700
     34 HC9         56.7370    77.5160    29.8630 hc         1 ECO       0.056700
     35 H111        58.1130    78.1920    32.4860 hc         1 ECO       0.037700
     36 H112        56.7420    79.0030    31.7690 hc         1 ECO       0.037700
     37 H121        58.8510    80.2750    31.4250 hc         1 ECO       0.039200
     38 H122        58.0830    79.8330    29.9040 hc         1 ECO       0.039200
     39 H14         58.8030    77.9440    28.6390 hc         1 ECO       0.044700
     40 H151        60.5520    76.5660    27.7970 hc         1 ECO       0.057200
     41 H152        61.2830    76.3630    29.3810 hc         1 ECO       0.057200
     42 H161        61.6990    78.6380    27.5210 hc         1 ECO       0.043700
     43 H162        62.5280    78.3180    29.0370 hc         1 ECO       0.043700
     44 H17         60.0370    79.9510    28.5720 h1         1 ECO       0.027700
     45 H17O        61.9380    81.0080    29.2130 ho         1 ECO       0.434000
     46 H181        60.1980    77.6080    32.1670 hc         1 ECO       0.035367
     47 H182        61.6490    77.7930    31.1920 hc         1 ECO       0.035367
     48 H183        61.0110    79.1680    32.0870 hc         1 ECO       0.035367
     49 H191        55.9140    71.9520    27.3090 h1         1 ECO       0.022700
     50 H192        57.1720    71.0780    28.1990 h1         1 ECO       0.022700
@<TRIPOS>BOND
     1     1     2 ar  
     2     1    11 ar  
     3     1    27 1   
     4     2     3 ar  
     5     2    28 1   
     6     3     4 1   
     7     3     5 ar  
     8     4    29 1   
     9     5     6 ar  
    10     5    30 1   
    11     6     7 1   
    12     6    11 ar  
    13     7     8 1   
    14     7    21 2   
    15     8     9 1   
    16     8    31 1   
    17     8    32 1   
    18     9    10 1   
    19     9    15 1   
    20     9    33 1   
    21    10    11 1   
    22    10    12 1   
    23    10    34 1   
    24    12    13 1   
    25    12    35 1   
    26    12    36 1   
    27    13    14 1   
    28    13    37 1   
    29    13    38 1   
    30    14    15 1   
    31    14    18 1   
    32    14    20 1   
    33    15    16 1   
    34    15    39 1   
    35    16    17 1   
    36    16    40 1   
    37    16    41 1   
    38    17    18 1   
    39    17    42 1   
    40    17    43 1   
    41    18    19 1   
    42    18    44 1   
    43    19    45 1   
    44    20    46 1   
    45    20    47 1   
    46    20    48 1   
    47    21    22 1   
    48    22    23 1   
    49    23    24 1   
    50    23    49 1   
    51    23    50 1   
    52    24    25 1   
    53    24    26 1   
@<TRIPOS>SUBSTRUCTURE
     1 ECO         1 TEMP              0 ****  ****    0 ROOT
