@<TRIPOS>MOLECULE
ECO
   50    53     1     0     0
SMALL
No Charge or Current Charge


@<TRIPOS>ATOM
      1 C1          55.6800    76.5600    32.6560 ca         1 ECO      -0.089000
      2 C2          54.8890    75.6140    33.3210 ca         1 ECO      -0.147000
      3 C3          54.8420    74.2950    32.8660 ca         1 ECO       0.117100
      4 O3          54.0680    73.3820    33.5190 oh         1 ECO      -0.551100
      5 C4          55.5820    73.9190    31.7370 ca         1 ECO      -0.166000
      6 C5          56.3930    74.8580    31.0490 ca         1 ECO      -0.061900
      7 C6          57.1560    74.4350    29.8160 ce         1 ECO       0.373900
      8 C7          58.0970    75.4510    29.1560 c6         1 ECO      -0.132700
      9 C8          58.5630    76.5540    30.1330 c6         1 ECO      -0.040700
     10 C9          57.3220    77.2470    30.7830 c6         1 ECO      -0.009400
     11 C10         56.4490    76.2000    31.5220 ca         1 ECO      -0.094300
     12 C11         57.7490    78.4720    31.6680 c6         1 ECO      -0.068400
     13 C12         58.7010    79.4640    30.9360 c6         1 ECO      -0.058400
     14 C13         59.9490    78.7440    30.3530 c5         1 ECO      -0.044000
     15 C14         59.4530    77.6070    29.4130 c5         1 ECO      -0.062700
     16 C15         60.7740    77.1330    28.7440 c5         1 ECO      -0.066400
     17 C16         61.5740    78.4680    28.5450 c5         1 ECO      -0.110400
     18 C17         60.7210    79.5670    29.2660 c5         1 ECO       0.165300
     19 O17         61.5310    80.6090    29.8080 oh         1 ECO      -0.664000
     20 C18         60.8670    78.2850    31.5450 c3         1 ECO      -0.070100
     21 N19         57.0160    73.2270    29.3460 n2         1 ECO      -0.325700
     22 O19         57.3420    73.0630    27.9810 os         1 ECO      -0.278000
     23 C19         57.1490    71.6840    27.5870 c3         1 ECO       0.012600
     24 C20         57.4850    71.4140    26.0880 c          1 ECO       0.718000
     25 O20         57.8680    72.3350    25.3760 o          1 ECO      -0.721000
     26 O21         57.3490    70.2690    25.6750 o          1 ECO      -0.721000
     27 HC1         55.6780    77.5750    33.0390 ha         1 ECO       0.106000
     28 HC2         54.3080    75.9080    34.1920 ha         1 ECO       0.117000
     29 HO3         54.1530    72.5160    33.0650 ho         1 ECO       0.462000
     30 HC4         55.5250    72.8890    31.3930 ha         1 ECO       0.136000
     31 HC71        57.5940    75.8900    28.2850 hc         1 ECO       0.076700
     32 HC72        58.9810    74.9230    28.7750 hc         1 ECO       0.076700
     33 HC8         59.1500    76.0730    30.9270 hc         1 ECO       0.054700
     34 HC9         56.7050    77.6510    29.9670 hc         1 ECO       0.056700
     35 H111        58.2110    78.1190    32.5990 hc         1 ECO       0.037700
     36 H112        56.8600    79.0420    31.9660 hc         1 ECO       0.037700
     37 H121        59.0070    80.2670    31.6200 hc         1 ECO       0.039200
     38 H122        58.1460    79.9530    30.1240 hc         1 ECO       0.039200
     39 H14         58.7970    78.0220    28.6360 hc         1 ECO       0.044700
     40 H151        60.5900    76.6220    27.7910 hc         1 ECO       0.057200
     41 H152        61.3230    76.4270    29.3780 hc         1 ECO       0.057200
     42 H161        61.7040    78.7080    27.4830 hc         1 ECO       0.043700
     43 H162        62.5800    78.3820    28.9720 hc         1 ECO       0.043700
     44 H17         60.0060    80.0000    28.5520 h1         1 ECO       0.027700
     45 H17O        62.0080    81.0150    29.0520 ho         1 ECO       0.434000
     46 H181        60.3810    77.5480    32.1920 hc         1 ECO       0.035367
     47 H182        61.8090    77.8360    31.2110 hc         1 ECO       0.035367
     48 H183        61.1370    79.1380    32.1790 hc         1 ECO       0.035367
     49 H191        56.1040    71.3860    27.7500 h1         1 ECO       0.022700
     50 H192        57.7860    71.0240    28.1920 h1         1 ECO       0.022700
@<TRIPOS>BOND
     1     1     2 ar  
     2     1    11 ar  
     3     1    27 1   
     4     2     3 ar  
     5     2    28 1   
     6     3     4 1   
     7     3     5 ar  
     8     4    29 1   
     9     5     6 ar  
    10     5    30 1   
    11     6     7 1   
    12     6    11 ar  
    13     7     8 1   
    14     7    21 2   
    15     8     9 1   
    16     8    31 1   
    17     8    32 1   
    18     9    10 1   
    19     9    15 1   
    20     9    33 1   
    21    10    11 1   
    22    10    12 1   
    23    10    34 1   
    24    12    13 1   
    25    12    35 1   
    26    12    36 1   
    27    13    14 1   
    28    13    37 1   
    29    13    38 1   
    30    14    15 1   
    31    14    18 1   
    32    14    20 1   
    33    15    16 1   
    34    15    39 1   
    35    16    17 1   
    36    16    40 1   
    37    16    41 1   
    38    17    18 1   
    39    17    42 1   
    40    17    43 1   
    41    18    19 1   
    42    18    44 1   
    43    19    45 1   
    44    20    46 1   
    45    20    47 1   
    46    20    48 1   
    47    21    22 1   
    48    22    23 1   
    49    23    24 1   
    50    23    49 1   
    51    23    50 1   
    52    24    25 1   
    53    24    26 1   
@<TRIPOS>SUBSTRUCTURE
     1 ECO         1 TEMP              0 ****  ****    0 ROOT
