@<TRIPOS>MOLECULE
ECQ
   28    28     1     0     0
SMALL
abcg2


@<TRIPOS>ATOM
      1 OAD          2.3810     1.9070     0.4900 o          1 ECQ      -0.552000
      2 CD2          2.2790     0.7170     0.2350 c          1 ECQ       0.563000
      3 CG           1.0530     0.0190    -0.3320 c5         1 ECQ      -0.156700
      4 CD1          1.3460    -1.4610    -0.0800 c5         1 ECQ      -0.094400
      5 CAE          2.8740    -1.5360    -0.0600 c5         1 ECQ       0.099000
      6 NAH          3.2400    -0.2090     0.3880 ns         1 ECQ      -0.514900
      7 CB          -0.2540     0.5350     0.2520 c3         1 ECQ      -0.094400
      8 CA          -1.4880    -0.1490    -0.3510 c3         1 ECQ       0.166500
      9 N           -1.5860    -0.0160    -1.7980 n8         1 ECQ      -1.007200
     10 C           -2.7870     0.3740     0.2710 c3         1 ECQ       0.180300
     11 O           -2.6620     0.2620     1.6770 oh         1 ECQ      -0.669000
     12 CMK         -4.0100    -0.3780    -0.2290 c3         1 ECQ      -0.119100
     13 HN1         -1.4690     0.9550    -2.0650 hn         1 ECQ       0.397000
     14 HN2         -0.8360    -0.5220    -2.2490 hn         1 ECQ       0.397000
     15 HA          -1.4330    -1.2230    -0.1330 h1         1 ECQ       0.063700
     16 HMK1        -4.9200     0.0070     0.2380 hc         1 ECQ       0.043700
     17 HMK2        -4.1180    -0.2740    -1.3060 hc         1 ECQ       0.043700
     18 HMK3        -3.9340    -1.4430     0.0040 hc         1 ECQ       0.043700
     19 HB1         -0.2370     0.3870     1.3340 hc         1 ECQ       0.069200
     20 HB2         -0.3250     1.6150     0.0840 hc         1 ECQ       0.069200
     21 HG           1.0780     0.2190    -1.4120 hc         1 ECQ       0.062700
     22 HAH          4.1850     0.0380     0.6390 hn         1 ECQ       0.328500
     23 HAE1         3.2490    -2.2980     0.6220 h1         1 ECQ       0.044200
     24 HAE2         3.2800    -1.7450    -1.0540 h1         1 ECQ       0.044200
     25 HD11         0.9480    -1.7540     0.8940 hc         1 ECQ       0.060200
     26 HD12         0.9140    -2.1230    -0.8290 hc         1 ECQ       0.060200
     27 H           -2.8890     1.4340    -0.0150 h1         1 ECQ       0.027700
     28 HO          -3.4740     0.5870     2.0760 ho         1 ECQ       0.445000
@<TRIPOS>BOND
     1     1     2 2   
     2     2     3 1   
     3     2     6 1   
     4     3     4 1   
     5     3     7 1   
     6     3    21 1   
     7     4     5 1   
     8     4    25 1   
     9     4    26 1   
    10     5     6 1   
    11     5    23 1   
    12     5    24 1   
    13     6    22 1   
    14     7     8 1   
    15     7    19 1   
    16     7    20 1   
    17     8     9 1   
    18     8    10 1   
    19     8    15 1   
    20     9    13 1   
    21     9    14 1   
    22    10    11 1   
    23    10    12 1   
    24    10    27 1   
    25    11    28 1   
    26    12    16 1   
    27    12    17 1   
    28    12    18 1   
@<TRIPOS>SUBSTRUCTURE
     1 ECQ         1 TEMP              0 ****  ****    0 ROOT
