@<TRIPOS>MOLECULE
ECQ
   28    28     1     0     0
SMALL
No Charge or Current Charge


@<TRIPOS>ATOM
      1 OAD          2.4210     1.8330     0.7550 o          1 ECQ      -0.552000
      2 CD2          2.3380     0.7280     0.2450 c          1 ECQ       0.563000
      3 CG           1.1170     0.0140    -0.3570 c5         1 ECQ      -0.156700
      4 CD1          1.4020    -1.4780    -0.0250 c5         1 ECQ      -0.094400
      5 CAE          2.9480    -1.5370    -0.1690 c5         1 ECQ       0.099000
      6 NAH          3.3150    -0.2240     0.3550 ns         1 ECQ      -0.514900
      7 CB          -0.2460     0.5590     0.1650 c3         1 ECQ      -0.094400
      8 CA          -1.5170    -0.1690    -0.3590 c3         1 ECQ       0.166500
      9 N           -1.5450    -0.0990    -1.8430 n8         1 ECQ      -1.007200
     10 C           -2.8470     0.3740     0.2850 c3         1 ECQ       0.180300
     11 O           -2.8010     0.2610     1.7150 oh         1 ECQ      -0.669000
     12 CMK         -4.1130    -0.3670    -0.2020 c3         1 ECQ      -0.119100
     13 HN1         -1.5320     0.8860    -2.1290 hn         1 ECQ       0.397000
     14 HN2         -0.6560    -0.4640    -2.2020 hn         1 ECQ       0.397000
     15 HA          -1.4360    -1.2310    -0.0820 h1         1 ECQ       0.063700
     16 HMK1        -5.0090     0.0310     0.2880 hc         1 ECQ       0.043700
     17 HMK2        -4.2450    -0.2460    -1.2840 hc         1 ECQ       0.043700
     18 HMK3        -4.0460    -1.4390     0.0180 hc         1 ECQ       0.043700
     19 HB1         -0.2400     0.5030     1.2610 hc         1 ECQ       0.069200
     20 HB2         -0.3300     1.6270    -0.0740 hc         1 ECQ       0.069200
     21 HG           1.1830     0.1440    -1.4430 hc         1 ECQ       0.062700
     22 HAH          4.1880     0.0170     0.8100 hn         1 ECQ       0.328500
     23 HAE1         3.3840    -2.3650     0.4070 h1         1 ECQ       0.044200
     24 HAE2         3.2510    -1.6460    -1.2190 h1         1 ECQ       0.044200
     25 HD11         1.1010    -1.7230     1.0010 hc         1 ECQ       0.060200
     26 HD12         0.8900    -2.1780    -0.6950 hc         1 ECQ       0.060200
     27 H           -2.9490     1.4330     0.0090 h1         1 ECQ       0.027700
     28 HO          -3.6190     0.6800     2.0610 ho         1 ECQ       0.445000
@<TRIPOS>BOND
     1     1     2 2   
     2     2     3 1   
     3     2     6 1   
     4     3     4 1   
     5     3     7 1   
     6     3    21 1   
     7     4     5 1   
     8     4    25 1   
     9     4    26 1   
    10     5     6 1   
    11     5    23 1   
    12     5    24 1   
    13     6    22 1   
    14     7     8 1   
    15     7    19 1   
    16     7    20 1   
    17     8     9 1   
    18     8    10 1   
    19     8    15 1   
    20     9    13 1   
    21     9    14 1   
    22    10    11 1   
    23    10    12 1   
    24    10    27 1   
    25    11    28 1   
    26    12    16 1   
    27    12    17 1   
    28    12    18 1   
@<TRIPOS>SUBSTRUCTURE
     1 ECQ         1 TEMP              0 ****  ****    0 ROOT
