@<TRIPOS>MOLECULE
ECR
   27    29     1     0     0
SMALL
bcc


@<TRIPOS>ATOM
      1 C1           8.3180    -6.2770     0.8830 ca         1 ECR       0.136900
      2 C15          6.5810    -7.6560    -1.8070 cc         1 ECR      -0.236600
      3 C16          5.6150    -8.6170    -1.7810 cd         1 ECR       0.295200
      4 C18          7.3570    -9.5270    -0.9630 cc         1 ECR       0.404400
      5 C2           8.6530    -5.3450     1.8160 ca         1 ECR      -0.146000
      6 C3           9.9460    -4.7980     1.8170 ca         1 ECR      -0.200000
      7 C4          10.8820    -5.1960     0.8960 ca         1 ECR       0.072800
      8 C5          10.5460    -6.1740    -0.0830 ca         1 ECR       0.461600
      9 C6           9.2310    -6.7090    -0.1000 ca         1 ECR      -0.203300
     10 C7           8.9740    -7.6700    -1.1210 ca         1 ECR       0.080800
     11 C8           9.9560    -8.0460    -1.9770 ca         1 ECR      -0.285300
     12 C9          11.2500    -7.4600    -1.8480 ca         1 ECR       0.693200
     13 F13          7.0820    -6.8050     0.9120 f          1 ECR      -0.129900
     14 N10         11.5130    -6.5520    -0.9400 nb         1 ECR      -0.730000
     15 N12         12.2210    -7.8120    -2.7170 nv         1 ECR      -0.959500
     16 N14          7.6960    -8.2530    -1.2800 na         1 ECR      -0.145000
     17 N17          6.1100    -9.7770    -1.2500 nd         1 ECR      -0.668000
     18 O11         12.1390    -4.7190     0.8560 oh         1 ECR      -0.459100
     19 H2           4.5940    -8.5340    -2.1220 h4         1 ECR       0.039100
     20 H3           8.0660   -10.2120    -0.5240 h5         1 ECR       0.056100
     21 H4           7.9300    -5.0320     2.5580 ha         1 ECR       0.154000
     22 H5          10.1980    -4.0580     2.5670 ha         1 ECR       0.139000
     23 H6           9.7550    -8.7670    -2.7580 ha         1 ECR       0.157000
     24 H7          13.1630    -7.5180    -2.5210 hn         1 ECR       0.434300
     25 H8          12.1240    -8.6540    -3.2580 hn         1 ECR       0.434300
     26 H9          12.2660    -4.0720     1.5590 ho         1 ECR       0.421000
     27 H1           6.5800    -6.6340    -2.1460 h4         1 ECR       0.180000
@<TRIPOS>BOND
     1     1     5 ar  
     2     1     9 ar  
     3     1    13 1   
     4     2     3 2   
     5     2    16 1   
     6     2    27 1   
     7     3    17 1   
     8     3    19 1   
     9     4    16 1   
    10     4    17 2   
    11     4    20 1   
    12     5     6 ar  
    13     5    21 1   
    14     6     7 ar  
    15     6    22 1   
    16     7     8 ar  
    17     7    18 1   
    18     8     9 ar  
    19     8    14 ar  
    20     9    10 ar  
    21    10    11 ar  
    22    10    16 1   
    23    11    12 ar  
    24    11    23 1   
    25    12    14 ar  
    26    12    15 1   
    27    15    24 1   
    28    15    25 1   
    29    18    26 1   
@<TRIPOS>SUBSTRUCTURE
     1 ECR         1 TEMP              0 ****  ****    0 ROOT
