@<TRIPOS>MOLECULE
ECR
   27    29     1     0     0
SMALL
No Charge or Current Charge


@<TRIPOS>ATOM
      1 C1           8.3600    -6.2620     0.9560 ca         1 ECR       0.172000
      2 C15          6.7340    -7.9750    -2.2820 cc         1 ECR      -0.204000
      3 C16          5.7430    -8.9010    -2.0640 cd         1 ECR       0.229900
      4 C18          7.1620    -9.2110    -0.4510 cc         1 ECR       0.404400
      5 C2           8.7950    -5.3920     1.9640 ca         1 ECR      -0.128000
      6 C3          10.1110    -4.9150     1.9720 ca         1 ECR      -0.182000
      7 C4          11.0010    -5.3030     0.9610 ca         1 ECR       0.138100
      8 C5          10.5830    -6.1890    -0.0820 ca         1 ECR       0.331000
      9 C6           9.2420    -6.6860    -0.0780 ca         1 ECR      -0.138000
     10 C7           8.8490    -7.5750    -1.1220 ca         1 ECR       0.080800
     11 C8           9.7930    -7.8990    -2.1050 ca         1 ECR      -0.202000
     12 C9          11.0620    -7.3500    -2.0130 ca         1 ECR       0.627900
     13 F13          7.0700    -6.6600     1.0100 f          1 ECR      -0.165000
     14 N10         11.4670    -6.5400    -1.0560 nb         1 ECR      -0.730000
     15 N12         12.0450    -7.5970    -2.8810 nv         1 ECR      -1.069900
     16 N14          7.5870    -8.1580    -1.2240 na         1 ECR      -0.094300
     17 N17          6.0110    -9.6670    -0.9370 nd         1 ECR      -0.668000
     18 O11         12.2820    -4.8020     1.0070 oh         1 ECR      -0.498100
     19 H2           4.8600    -9.0750    -2.6680 h4         1 ECR       0.039100
     20 H3           7.7090    -9.5800     0.4080 h5         1 ECR       0.056100
     21 H4           8.1010    -5.0840     2.7430 ha         1 ECR       0.136000
     22 H5          10.4300    -4.2410     2.7640 ha         1 ECR       0.121000
     23 H6           9.5440    -8.5690    -2.9220 ha         1 ECR       0.139000
     24 H7          12.9630    -7.3240    -2.5520 hn         1 ECR       0.489500
     25 H8          11.9980    -8.4610    -3.4100 hn         1 ECR       0.489500
     26 H9          12.3620    -4.2190     1.7910 ho         1 ECR       0.460000
     27 H1           6.8780    -7.2390    -3.0620 h4         1 ECR       0.162000
@<TRIPOS>BOND
     1     1     5 ar  
     2     1     9 ar  
     3     1    13 1   
     4     2     3 2   
     5     2    16 1   
     6     2    27 1   
     7     3    17 1   
     8     3    19 1   
     9     4    16 1   
    10     4    17 2   
    11     4    20 1   
    12     5     6 ar  
    13     5    21 1   
    14     6     7 ar  
    15     6    22 1   
    16     7     8 ar  
    17     7    18 1   
    18     8     9 ar  
    19     8    14 ar  
    20     9    10 ar  
    21    10    11 ar  
    22    10    16 1   
    23    11    12 ar  
    24    11    23 1   
    25    12    14 ar  
    26    12    15 1   
    27    15    24 1   
    28    15    25 1   
    29    18    26 1   
@<TRIPOS>SUBSTRUCTURE
     1 ECR         1 TEMP              0 ****  ****    0 ROOT
