@<TRIPOS>MOLECULE
ECS
   45    48     1     0     0
SMALL
No Charge or Current Charge


@<TRIPOS>ATOM
      1 C1           2.0840    -0.0040    -0.0650 ca         1 ECS      -0.157000
      2 C10          3.2810    -0.7620    -0.0720 ca         1 ECS      -0.063300
      3 C11          4.7560     1.3350     0.5160 c6         1 ECS      -0.068400
      4 C12          6.1600     1.9950     0.3600 c6         1 ECS      -0.059400
      5 C13          7.3030     1.0560     0.8430 c5         1 ECS      -0.039000
      6 C14          7.1890    -0.2930     0.0700 c5         1 ECS      -0.065700
      7 C15          8.4930    -1.0260     0.4960 c5         1 ECS      -0.065400
      8 C16          9.5500     0.1330     0.5520 c5         1 ECS      -0.116400
      9 C17          8.7280     1.4480     0.3250 c5         1 ECS       0.171300
     10 C18          7.2290     0.9510     2.4110 c3         1 ECS      -0.074100
     11 C2           0.8330    -0.6350     0.0140 ca         1 ECS       0.041100
     12 C3           0.7570    -2.0380     0.0750 ca         1 ECS       0.122100
     13 C4           1.9280    -2.8040     0.0480 ca         1 ECS      -0.125000
     14 C5           3.1890    -2.1810    -0.0360 ca         1 ECS      -0.066300
     15 C6           4.4300    -3.0820    -0.0620 c6         1 ECS      -0.027100
     16 C7           5.7310    -2.3540    -0.4520 c6         1 ECS      -0.070400
     17 C8           5.8240    -1.0030     0.2900 c6         1 ECS      -0.045700
     18 C9           4.6630    -0.0660    -0.1860 c6         1 ECS      -0.008400
     19 O17          9.2970     2.5630     1.0100 oh         1 ECS      -0.652000
     20 O3          -0.4630    -2.6420     0.1530 oh         1 ECS      -0.536100
     21 O2          -0.3160     0.1120     0.0260 oh         1 ECS      -0.559100
     22 H1           2.1150     1.0780    -0.1300 ha         1 ECS       0.111000
     23 H9           4.8160     0.1180    -1.2590 hc         1 ECS       0.052700
     24 H111         4.4880     1.2400     1.5760 hc         1 ECS       0.041700
     25 H112         4.0270     2.0280     0.0800 hc         1 ECS       0.041700
     26 H121         6.3160     2.2480    -0.6980 hc         1 ECS       0.044700
     27 H122         6.1920     2.9480     0.9050 hc         1 ECS       0.044700
     28 H14          7.2270    -0.1160    -1.0140 hc         1 ECS       0.042700
     29 H17          8.6850     1.6700    -0.7510 h1         1 ECS       0.026700
     30 H181         7.2920     1.9440     2.8710 hc         1 ECS       0.037367
     31 H182         6.2940     0.5000     2.7590 hc         1 ECS       0.037367
     32 H183         8.0430     0.3570     2.8400 hc         1 ECS       0.037367
     33 H151         8.7780    -1.8030    -0.2230 hc         1 ECS       0.044700
     34 H152         8.3850    -1.5200     1.4680 hc         1 ECS       0.044700
     35 H8           5.7030    -1.2040     1.3630 hc         1 ECS       0.058700
     36 H161        10.0690     0.1340     1.5170 hc         1 ECS       0.047200
     37 H162        10.3210     0.0150    -0.2180 hc         1 ECS       0.047200
     38 HA          10.1990     2.6880     0.6430 ho         1 ECS       0.441000
     39 H2          -0.0760     1.0640    -0.0230 ho         1 ECS       0.472000
     40 H4           1.8570    -3.8880     0.0890 ha         1 ECS       0.128000
     41 H3          -1.1220    -1.9120     0.1510 ho         1 ECS       0.480000
     42 H6C1         4.5560    -3.5280     0.9340 hc         1 ECS       0.049200
     43 H6C2         4.2680    -3.9230    -0.7500 hc         1 ECS       0.049200
     44 H7C1         6.5890    -2.9950    -0.2090 hc         1 ECS       0.043200
     45 H7C2         5.7570    -2.1890    -1.5380 hc         1 ECS       0.043200
@<TRIPOS>BOND
     1     1     2 ar  
     2     1    11 ar  
     3     1    22 1   
     4     2    14 ar  
     5     2    18 1   
     6     3     4 1   
     7     3    18 1   
     8     3    24 1   
     9     3    25 1   
    10     4     5 1   
    11     4    26 1   
    12     4    27 1   
    13     5     6 1   
    14     5     9 1   
    15     5    10 1   
    16     6     7 1   
    17     6    17 1   
    18     6    28 1   
    19     7     8 1   
    20     7    33 1   
    21     7    34 1   
    22     8     9 1   
    23     8    36 1   
    24     8    37 1   
    25     9    19 1   
    26     9    29 1   
    27    10    30 1   
    28    10    31 1   
    29    10    32 1   
    30    11    12 ar  
    31    11    21 1   
    32    12    13 ar  
    33    12    20 1   
    34    13    14 ar  
    35    13    40 1   
    36    14    15 1   
    37    15    16 1   
    38    15    42 1   
    39    15    43 1   
    40    16    17 1   
    41    16    44 1   
    42    16    45 1   
    43    17    18 1   
    44    17    35 1   
    45    18    23 1   
    46    19    38 1   
    47    20    41 1   
    48    21    39 1   
@<TRIPOS>SUBSTRUCTURE
     1 ECS         1 TEMP              0 ****  ****    0 ROOT
