@<TRIPOS>MOLECULE
ECS
   45    48     1     0     0
SMALL
abcg2


@<TRIPOS>ATOM
      1 C1           2.1710     0.0020    -0.0660 ca         1 ECS      -0.157000
      2 C10          3.3470    -0.7550    -0.0580 ca         1 ECS      -0.063300
      3 C11          4.7730     1.3000     0.4940 c6         1 ECS      -0.068400
      4 C12          6.1480     1.9580     0.3390 c6         1 ECS      -0.059400
      5 C13          7.2680     1.0400     0.8160 c5         1 ECS      -0.039000
      6 C14          7.1540    -0.3000     0.0740 c5         1 ECS      -0.065700
      7 C15          8.4660    -1.0170     0.4000 c5         1 ECS      -0.065400
      8 C16          9.4930     0.1340     0.5170 c5         1 ECS      -0.116400
      9 C17          8.6790     1.4390     0.3790 c5         1 ECS       0.171300
     10 C18          7.2130     0.8820     2.3390 c3         1 ECS      -0.074100
     11 C2           0.9210    -0.5840    -0.0040 ca         1 ECS       0.041100
     12 C3           0.8120    -1.9770     0.0650 ca         1 ECS       0.122100
     13 C4           1.9700    -2.7310     0.0660 ca         1 ECS      -0.125000
     14 C5           3.2350    -2.1450     0.0040 ca         1 ECS      -0.066300
     15 C6           4.4420    -3.0500     0.0300 c6         1 ECS      -0.027100
     16 C7           5.7230    -2.3450    -0.3860 c6         1 ECS      -0.070400
     17 C8           5.8320    -1.0010     0.3160 c6         1 ECS      -0.045700
     18 C9           4.7020    -0.0800    -0.1740 c6         1 ECS      -0.008400
     19 O17          9.1790     2.5280     1.1170 oh         1 ECS      -0.652000
     20 O3          -0.3870    -2.5990     0.1270 oh         1 ECS      -0.536100
     21 O2          -0.2440     0.1100    -0.0070 oh         1 ECS      -0.559100
     22 H1           2.2230     1.0840    -0.1220 ha         1 ECS       0.111000
     23 H9           4.8880     0.0820    -1.2470 hc         1 ECS       0.052700
     24 H111         4.5080     1.2050     1.5520 hc         1 ECS       0.041700
     25 H112         4.0290     1.9690     0.0580 hc         1 ECS       0.041700
     26 H121         6.3110     2.1970    -0.7190 hc         1 ECS       0.044700
     27 H122         6.1610     2.9090     0.8790 hc         1 ECS       0.044700
     28 H14          7.1870    -0.0610    -1.0010 hc         1 ECS       0.042700
     29 H17          8.6260     1.7060    -0.6880 h1         1 ECS       0.026700
     30 H181         7.3940     1.8400     2.8280 hc         1 ECS       0.037367
     31 H182         6.2390     0.5310     2.6790 hc         1 ECS       0.037367
     32 H183         7.9560     0.1790     2.7180 hc         1 ECS       0.037367
     33 H151         8.7380    -1.7400    -0.3700 hc         1 ECS       0.044700
     34 H152         8.3890    -1.5750     1.3360 hc         1 ECS       0.044700
     35 H8           5.7070    -1.1720     1.3940 hc         1 ECS       0.058700
     36 H161        10.0000     0.1160     1.4850 hc         1 ECS       0.047200
     37 H162        10.2710     0.0690    -0.2460 hc         1 ECS       0.047200
     38 HA          10.0500     2.7480     0.7750 ho         1 ECS       0.441000
     39 H2          -0.0770     1.0580    -0.0450 ho         1 ECS       0.472000
     40 H4           1.8850    -3.8110     0.1140 ha         1 ECS       0.128000
     41 H3          -1.1010    -1.9520     0.1120 ho         1 ECS       0.480000
     42 H6C1         4.5670    -3.4420     1.0450 hc         1 ECS       0.049200
     43 H6C2         4.2600    -3.9210    -0.6050 hc         1 ECS       0.049200
     44 H7C1         6.5800    -2.9810    -0.1500 hc         1 ECS       0.043200
     45 H7C2         5.7380    -2.1890    -1.4710 hc         1 ECS       0.043200
@<TRIPOS>BOND
     1     1     2 ar  
     2     1    11 ar  
     3     1    22 1   
     4     2    14 ar  
     5     2    18 1   
     6     3     4 1   
     7     3    18 1   
     8     3    24 1   
     9     3    25 1   
    10     4     5 1   
    11     4    26 1   
    12     4    27 1   
    13     5     6 1   
    14     5     9 1   
    15     5    10 1   
    16     6     7 1   
    17     6    17 1   
    18     6    28 1   
    19     7     8 1   
    20     7    33 1   
    21     7    34 1   
    22     8     9 1   
    23     8    36 1   
    24     8    37 1   
    25     9    19 1   
    26     9    29 1   
    27    10    30 1   
    28    10    31 1   
    29    10    32 1   
    30    11    12 ar  
    31    11    21 1   
    32    12    13 ar  
    33    12    20 1   
    34    13    14 ar  
    35    13    40 1   
    36    14    15 1   
    37    15    16 1   
    38    15    42 1   
    39    15    43 1   
    40    16    17 1   
    41    16    44 1   
    42    16    45 1   
    43    17    18 1   
    44    17    35 1   
    45    18    23 1   
    46    19    38 1   
    47    20    41 1   
    48    21    39 1   
@<TRIPOS>SUBSTRUCTURE
     1 ECS         1 TEMP              0 ****  ****    0 ROOT
