@<TRIPOS>MOLECULE
ECU
   27    29     1     0     0
SMALL
abcg2


@<TRIPOS>ATOM
      1 C1          10.3350    -4.3020     1.5010 ca         1 ECU      -0.115000
      2 C15          8.4170    -6.5160    -1.2210 cc         1 ECU      -0.219000
      3 C16          7.1740    -6.8380    -0.7690 cd         1 ECU       0.233900
      4 C18          8.4200    -6.7840     0.9580 cc         1 ECU       0.406400
      5 C2          10.9300    -3.3300     2.2540 ca         1 ECU      -0.059000
      6 C3          12.3300    -3.2060     2.2630 ca         1 ECU      -0.121900
      7 C4          13.1400    -4.0300     1.5120 ca         1 ECU       0.191100
      8 C5          12.5310    -5.0430     0.7100 ca         1 ECU       0.309000
      9 C6          11.1250    -5.1810     0.7320 ca         1 ECU      -0.093000
     10 C7          10.6000    -6.2300    -0.0760 ca         1 ECU       0.069800
     11 C8          11.4230    -6.9930    -0.8390 ca         1 ECU      -0.204000
     12 C9          12.8250    -6.7380    -0.8030 ca         1 ECU       0.622900
     13 N10         13.3480    -5.8080    -0.0370 nb         1 ECU      -0.725000
     14 N12         13.6470    -7.4640    -1.5910 nv         1 ECU      -1.071900
     15 N14          9.2130    -6.4750    -0.1020 na         1 ECU      -0.092300
     16 N17          7.1910    -7.0080     0.5890 nd         1 ECU      -0.668000
     17 O11         14.4730    -3.9680     1.4550 oh         1 ECU      -0.491100
     18 BR1         13.1040    -1.8530     3.3300 br         1 ECU      -0.095100
     19 H1           9.2570    -4.3740     1.4920 ha         1 ECU       0.132000
     20 H3           6.2710    -6.9510    -1.3480 h4         1 ECU       0.041100
     21 H4           8.8070    -6.8500     1.9640 h5         1 ECU       0.063100
     22 H5          10.3230    -2.6520     2.8390 ha         1 ECU       0.133000
     23 H6          11.0300    -7.8000    -1.4440 ha         1 ECU       0.136000
     24 H7          14.6360    -7.4170    -1.4160 hn         1 ECU       0.489000
     25 H8          13.3120    -8.3120    -2.0140 hn         1 ECU       0.489000
     26 H9          14.8220    -3.2560     2.0060 ho         1 ECU       0.476000
     27 H2           8.8000    -6.3000    -2.2040 h4         1 ECU       0.162000
@<TRIPOS>BOND
     1     1     5 ar  
     2     1     9 ar  
     3     1    19 1   
     4     2     3 2   
     5     2    15 1   
     6     2    27 1   
     7     3    16 1   
     8     3    20 1   
     9     4    15 1   
    10     4    16 2   
    11     4    21 1   
    12     5     6 ar  
    13     5    22 1   
    14     6     7 ar  
    15     6    18 1   
    16     7     8 ar  
    17     7    17 1   
    18     8     9 ar  
    19     8    13 ar  
    20     9    10 ar  
    21    10    11 ar  
    22    10    15 1   
    23    11    12 ar  
    24    11    23 1   
    25    12    13 ar  
    26    12    14 1   
    27    14    24 1   
    28    14    25 1   
    29    17    26 1   
@<TRIPOS>SUBSTRUCTURE
     1 ECU         1 TEMP              0 ****  ****    0 ROOT
