@<TRIPOS>MOLECULE
ECU
   27    29     1     0     0
SMALL
No Charge or Current Charge


@<TRIPOS>ATOM
      1 C1          10.3760    -4.3060     1.4890 ca         1 ECU      -0.115000
      2 C15          8.3880    -6.4370    -1.2450 cc         1 ECU      -0.219000
      3 C16          7.1630    -6.8620    -0.7920 cd         1 ECU       0.233900
      4 C18          8.4430    -6.8800     0.9610 cc         1 ECU       0.406400
      5 C2          10.9910    -3.3180     2.2700 ca         1 ECU      -0.059000
      6 C3          12.3850    -3.1840     2.2620 ca         1 ECU      -0.121900
      7 C4          13.1770    -4.0350     1.4650 ca         1 ECU       0.191100
      8 C5          12.5720    -5.0480     0.6590 ca         1 ECU       0.309000
      9 C6          11.1500    -5.1820     0.6900 ca         1 ECU      -0.093000
     10 C7          10.5390    -6.1890    -0.1010 ca         1 ECU       0.069800
     11 C8          11.3650    -6.9960    -0.8950 ca         1 ECU      -0.204000
     12 C9          12.7360    -6.7770    -0.8570 ca         1 ECU       0.622900
     13 N10         13.3390    -5.8610    -0.1200 nb         1 ECU      -0.725000
     14 N12         13.6220    -7.4900    -1.5550 nv         1 ECU      -1.071900
     15 N14          9.1620    -6.4140    -0.1130 na         1 ECU      -0.092300
     16 N17          7.1990    -7.1370     0.5690 nd         1 ECU      -0.668000
     17 O11         14.5420    -3.8610     1.4830 oh         1 ECU      -0.491100
     18 Br1         13.1860    -1.8170     3.3480 br         1 ECU      -0.095100
     19 H1           9.2910    -4.3690     1.5100 ha         1 ECU       0.132000
     20 H3           6.2580    -7.0010    -1.3730 h4         1 ECU       0.041100
     21 H4           8.8620    -7.0010     1.9530 h5         1 ECU       0.063100
     22 H5          10.3820    -2.6530     2.8790 ha         1 ECU       0.133000
     23 H6          10.9510    -7.7800    -1.5210 ha         1 ECU       0.136000
     24 H7          14.5800    -7.3790    -1.2450 hn         1 ECU       0.489000
     25 H8          13.3500    -8.4240    -1.8420 hn         1 ECU       0.489000
     26 H9          14.7390    -3.1200     2.0930 ho         1 ECU       0.476000
     27 H2           8.7380    -6.1570    -2.2310 h4         1 ECU       0.162000
@<TRIPOS>BOND
     1     1     5 ar  
     2     1     9 ar  
     3     1    19 1   
     4     2     3 2   
     5     2    15 1   
     6     2    27 1   
     7     3    16 1   
     8     3    20 1   
     9     4    15 1   
    10     4    16 2   
    11     4    21 1   
    12     5     6 ar  
    13     5    22 1   
    14     6     7 ar  
    15     6    18 1   
    16     7     8 ar  
    17     7    17 1   
    18     8     9 ar  
    19     8    13 ar  
    20     9    10 ar  
    21    10    11 ar  
    22    10    15 1   
    23    11    12 ar  
    24    11    23 1   
    25    12    13 ar  
    26    12    14 1   
    27    14    24 1   
    28    14    25 1   
    29    17    26 1   
@<TRIPOS>SUBSTRUCTURE
     1 ECU         1 TEMP              0 ****  ****    0 ROOT
