@<TRIPOS>MOLECULE
ECV
   47    50     1     0     0
SMALL
bcc


@<TRIPOS>ATOM
      1 C1           0.7600     4.1430    -1.3100 c3         1 ECV       0.092300
      2 C3          -1.0030     2.6680    -0.4840 c          1 ECV       0.665100
      3 O4          -1.4250     2.4390    -1.6100 o          1 ECV      -0.586100
      4 C7          -1.5410     0.0330     2.3080 c6         1 ECV       0.113400
      5 C9          -3.4060    -0.6250     1.0150 ca         1 ECV       0.129100
      6 C10         -4.7590    -0.9500     0.9510 ca         1 ECV      -0.197000
      7 C11         -5.2920    -1.3220    -0.2620 ca         1 ECV       0.161900
      8 C13         -4.5430    -1.3620    -1.4240 ca         1 ECV      -0.188000
      9 C14         -3.2040    -1.0210    -1.3470 ca         1 ECV      -0.043000
     10 C15         -2.6150    -0.6770    -0.1360 ca         1 ECV      -0.048400
     11 C19          1.1210    -0.6910    -0.4510 ca         1 ECV      -0.146600
     12 C20          1.5310     0.4490    -1.1310 ca         1 ECV      -0.095000
     13 C21          2.8670     0.8220    -1.1220 ca         1 ECV      -0.133000
     14 C22          3.7920     0.0540    -0.4380 ca         1 ECV       0.098100
     15 C24          5.8310     0.0340     0.7030 c6         1 ECV       0.049400
     16 N2           0.0380     3.4790    -0.2520 ns         1 ECV      -0.579900
     17 C5          -1.6050     2.0240     0.7460 c3         1 ECV      -0.166400
     18 C6          -0.9950     0.6470     1.0280 c6         1 ECV       0.083700
     19 O8          -2.9340    -0.2230     2.2100 os         1 ECV      -0.309900
     20 N16         -1.2530    -0.3100    -0.0440 n          1 ECV      -0.365000
     21 C17         -0.2930    -1.1610    -0.5250 c          1 ECV       0.687700
     22 O18         -0.5570    -2.2410    -1.0170 o          1 ECV      -0.548100
     23 O23          5.1010     0.3870    -0.4580 os         1 ECV      -0.299900
     24 C25          5.5990    -1.3970     1.1430 c          1 ECV       0.684500
     25 O26          6.4440    -2.0370     1.7350 o          1 ECV      -0.597500
     26 N27          4.3610    -1.8660     0.8680 ns         1 ECV      -0.468100
     27 C28          3.3860    -1.0990     0.2370 ca         1 ECV       0.004600
     28 C29          2.0540    -1.4750     0.2200 ca         1 ECV      -0.109000
     29 H1           1.3030     3.4380    -1.9420 h1         1 ECV       0.041367
     30 H2           0.0890     4.7210    -1.9450 h1         1 ECV       0.041367
     31 H3           1.4800     4.8220    -0.8630 h1         1 ECV       0.041367
     32 H4          -1.0060    -0.8970     2.5250 h1         1 ECV       0.065200
     33 H5          -1.4080     0.7080     3.1530 h1         1 ECV       0.065200
     34 H6          -5.3720    -0.9100     1.8420 ha         1 ECV       0.163000
     35 H7          -4.9930    -1.6380    -2.3670 ha         1 ECV       0.157000
     36 H8          -2.6090    -1.0140    -2.2490 ha         1 ECV       0.156000
     37 H9           0.8170     1.0340    -1.6950 ha         1 ECV       0.164000
     38 H10          3.1970     1.7010    -1.6610 ha         1 ECV       0.154000
     39 H11          6.8850     0.1710     0.4720 h1         1 ECV       0.085700
     40 H12          5.5750     0.6950     1.5410 h1         1 ECV       0.085700
     41 H13          0.3550     3.6120     0.6940 hn         1 ECV       0.312500
     42 H14         -1.4430     2.6430     1.6300 hc         1 ECV       0.077200
     43 H15         -2.6830     1.9530     0.5970 hc         1 ECV       0.077200
     44 H16          0.0810     0.7540     1.1600 h1         1 ECV       0.077700
     45 H17          4.1170    -2.7900     1.1980 hn         1 ECV       0.336500
     46 H18          1.7480    -2.3780     0.7340 ha         1 ECV       0.150000
     47 F12         -6.5920    -1.6490    -0.3160 f          1 ECV      -0.139900
@<TRIPOS>BOND
     1     1    16 1   
     2     1    29 1   
     3     1    30 1   
     4     1    31 1   
     5     2     3 2   
     6     2    16 1   
     7     2    17 1   
     8     4    18 1   
     9     4    19 1   
    10     4    32 1   
    11     4    33 1   
    12     5     6 ar  
    13     5    10 ar  
    14     5    19 1   
    15     6     7 ar  
    16     6    34 1   
    17     7     8 ar  
    18     7    47 1   
    19     8     9 ar  
    20     8    35 1   
    21     9    10 ar  
    22     9    36 1   
    23    10    20 1   
    24    11    12 ar  
    25    11    21 1   
    26    11    28 ar  
    27    12    13 ar  
    28    12    37 1   
    29    13    14 ar  
    30    13    38 1   
    31    14    23 1   
    32    14    27 ar  
    33    15    23 1   
    34    15    24 1   
    35    15    39 1   
    36    15    40 1   
    37    16    41 1   
    38    17    18 1   
    39    17    42 1   
    40    17    43 1   
    41    18    20 1   
    42    18    44 1   
    43    20    21 1   
    44    21    22 2   
    45    24    25 2   
    46    24    26 1   
    47    26    27 1   
    48    26    45 1   
    49    27    28 ar  
    50    28    46 1   
@<TRIPOS>SUBSTRUCTURE
     1 ECV         1 TEMP              0 ****  ****    0 ROOT
