@<TRIPOS>MOLECULE
ECV
   47    50     1     0     0
SMALL
No Charge or Current Charge


@<TRIPOS>ATOM
      1 C1           0.6080     4.4650    -1.4170 c3         1 ECV       0.092300
      2 C3          -1.0650     2.8040    -0.5510 c          1 ECV       0.598100
      3 O4          -1.4250     2.4780    -1.6730 o          1 ECV      -0.586100
      4 C7          -1.7780     0.2710     2.3780 c6         1 ECV       0.136600
      5 C9          -3.5860    -0.5140     0.9380 ca         1 ECV       0.129100
      6 C10         -4.9130    -0.9440     0.7970 ca         1 ECV      -0.179000
      7 C11         -5.3410    -1.4950    -0.4170 ca         1 ECV       0.197000
      8 C13         -4.4460    -1.6350    -1.4880 ca         1 ECV      -0.170000
      9 C14         -3.1170    -1.1970    -1.3530 ca         1 ECV      -0.025000
     10 C15         -2.6920    -0.5740    -0.1610 ca         1 ECV      -0.141000
     11 C19          1.1710    -0.7640    -0.2120 ca         1 ECV      -0.146600
     12 C20          1.5490     0.4710    -0.7870 ca         1 ECV      -0.077000
     13 C21          2.8980     0.8690    -0.8120 ca         1 ECV      -0.115000
     14 C22          3.8830     0.0350    -0.2670 ca         1 ECV       0.098100
     15 C24          6.1110    -0.2010     0.6630 c6         1 ECV       0.072600
     16 N2          -0.1010     3.7640    -0.3440 ns         1 ECV      -0.512900
     17 C5          -1.6650     2.2030     0.7160 c3         1 ECV      -0.166400
     18 C6          -1.0890     0.7950     1.0910 c6         1 ECV       0.083700
     19 O8          -3.1870     0.0140     2.1510 os         1 ECV      -0.333100
     20 N16         -1.2990    -0.2520     0.0510 n          1 ECV      -0.205400
     21 C17         -0.2740    -1.2170    -0.1820 c          1 ECV       0.620700
     22 O18         -0.5440    -2.3900    -0.4180 o          1 ECV      -0.548100
     23 O23          5.2100     0.4220    -0.2960 os         1 ECV      -0.323100
     24 C25          5.8870    -1.7240     0.7520 c          1 ECV       0.542000
     25 O26          6.7940    -2.5490     0.7710 o          1 ECV      -0.522000
     26 N27          4.5530    -2.0680     0.7310 ns         1 ECV      -0.142000
     27 C28          3.5220    -1.2180     0.2730 ca         1 ECV      -0.088000
     28 C29          2.1760    -1.6200     0.2920 ca         1 ECV      -0.091000
     29 H1           1.1450     3.7390    -2.0410 h1         1 ECV       0.041367
     30 H2          -0.1110     5.0170    -2.0360 h1         1 ECV       0.041367
     31 H3           1.3270     5.1700    -0.9820 h1         1 ECV       0.041367
     32 H4          -1.3000    -0.6700     2.6860 h1         1 ECV       0.065200
     33 H5          -1.6690     0.9890     3.2030 h1         1 ECV       0.065200
     34 H6          -5.6040    -0.8610     1.6300 ha         1 ECV       0.145000
     35 H7          -4.7800    -2.0890    -2.4170 ha         1 ECV       0.139000
     36 H8          -2.4230    -1.3240    -2.1830 ha         1 ECV       0.138000
     37 H9           0.8050     1.1100    -1.2490 ha         1 ECV       0.146000
     38 H10          3.1790     1.8200    -1.2570 ha         1 ECV       0.136000
     39 H11          7.1540    -0.0080     0.3800 h1         1 ECV       0.085700
     40 H12          5.9200     0.2160     1.6610 h1         1 ECV       0.085700
     41 H13          0.1310     3.9880     0.6170 hn         1 ECV       0.312500
     42 H14         -1.4650     2.8800     1.5550 hc         1 ECV       0.077200
     43 H15         -2.7480     2.1370     0.5650 hc         1 ECV       0.077200
     44 H16         -0.0180     0.9140     1.3070 h1         1 ECV       0.077700
     45 H17          4.3280    -3.0480     0.8420 hn         1 ECV       0.170000
     46 H18          1.9090    -2.5920     0.7040 ha         1 ECV       0.132000
     47 F12         -6.6170    -1.9180    -0.5500 f          1 ECV      -0.175000
@<TRIPOS>BOND
     1     1    16 1   
     2     1    29 1   
     3     1    30 1   
     4     1    31 1   
     5     2     3 2   
     6     2    16 1   
     7     2    17 1   
     8     4    18 1   
     9     4    19 1   
    10     4    32 1   
    11     4    33 1   
    12     5     6 ar  
    13     5    10 ar  
    14     5    19 1   
    15     6     7 ar  
    16     6    34 1   
    17     7     8 ar  
    18     7    47 1   
    19     8     9 ar  
    20     8    35 1   
    21     9    10 ar  
    22     9    36 1   
    23    10    20 1   
    24    11    12 ar  
    25    11    21 1   
    26    11    28 ar  
    27    12    13 ar  
    28    12    37 1   
    29    13    14 ar  
    30    13    38 1   
    31    14    23 1   
    32    14    27 ar  
    33    15    23 1   
    34    15    24 1   
    35    15    39 1   
    36    15    40 1   
    37    16    41 1   
    38    17    18 1   
    39    17    42 1   
    40    17    43 1   
    41    18    20 1   
    42    18    44 1   
    43    20    21 1   
    44    21    22 2   
    45    24    25 2   
    46    24    26 1   
    47    26    27 1   
    48    26    45 1   
    49    27    28 ar  
    50    28    46 1   
@<TRIPOS>SUBSTRUCTURE
     1 ECV         1 TEMP              0 ****  ****    0 ROOT
