@<TRIPOS>MOLECULE
ECW
   46    47     1     0     0
SMALL
bcc


@<TRIPOS>ATOM
      1 CAB         12.9740    13.6320     4.7840 cc         1 ECW       0.170200
      2 CAC         13.1700    13.5950     3.4320 cd         1 ECW      -0.101200
      3 CAD         14.5740    13.5720     3.2590 cd         1 ECW      -0.194300
      4 CAE         15.0980    13.5970     4.5120 cc         1 ECW       0.239200
      5 CAJ         16.4860    13.5910     5.0040 c          1 ECW       0.576600
      6 CAM         18.7210    13.5960     4.1730 c3         1 ECW       0.063400
      7 CAN         19.1800    15.0550     4.0540 c          1 ECW       0.648100
      8 CAQ         19.8340    14.5540     1.7710 c3         1 ECW       0.145300
      9 CAR         18.5600    14.1130     1.0910 ca         1 ECW      -0.107300
     10 CAS         18.4580    12.8080     0.6160 ca         1 ECW      -0.116000
     11 CAT         17.3190    12.3800    -0.0530 ca         1 ECW      -0.131000
     12 CAU         16.2640    13.2570    -0.2610 ca         1 ECW      -0.128000
     13 CAV         16.3560    14.5610     0.2080 ca         1 ECW      -0.131000
     14 CAW         17.4940    14.9830     0.8830 ca         1 ECW      -0.116000
     15 CAX         20.0870    16.9330     2.7340 c3         1 ECW       0.143400
     16 CAY         20.4880    17.2510     1.2910 c3         1 ECW      -0.104767
     17 CAZ         18.9430    17.8910     3.0890 c3         1 ECW      -0.104767
     18 CBA         21.3110    17.1870     3.6180 c3         1 ECW      -0.104767
     19 NAF         11.7970    13.6750     5.5750 no         1 ECW       0.241500
     20 NAP         19.6550    15.5010     2.8690 n          1 ECW      -0.470800
     21 OAA         14.1310    13.6330     5.4390 os         1 ECW      -0.229800
     22 OAG         10.7450    13.6600     4.9810 o          1 ECW      -0.169000
     23 OAH         11.9320    13.7230     6.7740 o          1 ECW      -0.169000
     24 OAK         16.7770    13.5870     6.1670 o          1 ECW      -0.463000
     25 OAL         17.3070    13.5720     3.9690 os         1 ECW      -0.402900
     26 OAO         19.0520    15.7450     5.0530 o          1 ECW      -0.582100
     27 BR          11.9360    13.5820     2.0660 br         1 ECW       0.021900
     28 H1          15.1120    13.5430     2.3240 ha         1 ECW       0.202000
     29 H2          18.9810    13.2470     5.1720 h1         1 ECW       0.084700
     30 H3          19.1340    12.8990     3.4520 h1         1 ECW       0.084700
     31 H4          20.3930    13.6810     2.1110 h1         1 ECW       0.057200
     32 H5          20.4810    15.0080     1.0280 h1         1 ECW       0.057200
     33 H6          19.2760    12.1140     0.7780 ha         1 ECW       0.133000
     34 H7          17.2560    11.3590    -0.4060 ha         1 ECW       0.134500
     35 H8          15.3720    12.9260    -0.7790 ha         1 ECW       0.135000
     36 H9          15.5370    15.2520     0.0560 ha         1 ECW       0.134500
     37 H10         17.5400    15.9980     1.2550 ha         1 ECW       0.133000
     38 H11         20.6980    18.3190     1.2320 hc         1 ECW       0.046811
     39 H12         21.3960    16.7370     0.9750 hc         1 ECW       0.046811
     40 H13         19.6940    17.0400     0.5730 hc         1 ECW       0.046811
     41 H14         18.6370    17.8240     4.1270 hc         1 ECW       0.046811
     42 H15         19.2720    18.9140     2.9040 hc         1 ECW       0.046811
     43 H16         18.0710    17.7100     2.4590 hc         1 ECW       0.046811
     44 H17         21.0940    17.0640     4.6760 hc         1 ECW       0.046811
     45 H18         22.1240    16.5100     3.3490 hc         1 ECW       0.046811
     46 H19         21.6670    18.2080     3.4670 hc         1 ECW       0.046811
@<TRIPOS>BOND
     1     1     2 2   
     2     1    19 1   
     3     1    21 1   
     4     2     3 1   
     5     2    27 1   
     6     3     4 2   
     7     3    28 1   
     8     4     5 1   
     9     4    21 1   
    10     5    24 2   
    11     5    25 1   
    12     6     7 1   
    13     6    25 1   
    14     6    29 1   
    15     6    30 1   
    16     7    20 1   
    17     7    26 2   
    18     8     9 1   
    19     8    20 1   
    20     8    31 1   
    21     8    32 1   
    22     9    10 ar  
    23     9    14 ar  
    24    10    11 ar  
    25    10    33 1   
    26    11    12 ar  
    27    11    34 1   
    28    12    13 ar  
    29    12    35 1   
    30    13    14 ar  
    31    13    36 1   
    32    14    37 1   
    33    15    16 1   
    34    15    17 1   
    35    15    18 1   
    36    15    20 1   
    37    16    38 1   
    38    16    39 1   
    39    16    40 1   
    40    17    41 1   
    41    17    42 1   
    42    17    43 1   
    43    18    44 1   
    44    18    45 1   
    45    18    46 1   
    46    19    22 1   
    47    19    23 1   
@<TRIPOS>SUBSTRUCTURE
     1 ECW         1 TEMP              0 ****  ****    0 ROOT
