@<TRIPOS>MOLECULE
ECW
   46    47     1     0     0
SMALL
No Charge or Current Charge


@<TRIPOS>ATOM
      1 CAB         13.3710    13.3640     3.6080 cc         1 ECW       0.060500
      2 CAC         14.0330    12.4020     2.8740 cd         1 ECW      -0.035900
      3 CAD         15.3880    12.4420     3.2580 cd         1 ECW      -0.111000
      4 CAE         15.5090    13.4230     4.2020 cc         1 ECW       0.129500
      5 CAJ         16.7610    13.8690     4.8630 c          1 ECW       0.527600
      6 CAM         19.1790    13.5480     4.9660 c3         1 ECW       0.086600
      7 CAN         19.6680    14.9710     4.5570 c          1 ECW       0.581100
      8 CAQ         19.3610    14.3800     2.1150 c3         1 ECW       0.145300
      9 CAR         17.9530    14.3780     1.5060 ca         1 ECW      -0.107300
     10 CAS         17.6550    13.4410     0.4960 ca         1 ECW      -0.098000
     11 CAT         16.3780    13.4030    -0.0920 ca         1 ECW      -0.113000
     12 CAU         15.3850    14.3040     0.3220 ca         1 ECW      -0.110000
     13 CAV         15.6680    15.2400     1.3290 ca         1 ECW      -0.113000
     14 CAW         16.9430    15.2740     1.9220 ca         1 ECW      -0.098000
     15 CAX         20.1250    16.7730     2.7690 c3         1 ECW       0.143400
     16 CAY         19.8690    17.0910     1.2580 c3         1 ECW      -0.104767
     17 CAZ         19.4020    17.9150     3.5470 c3         1 ECW      -0.104767
     18 CBA         21.6630    16.8610     2.9620 c3         1 ECW      -0.104767
     19 NAF         11.9820    13.7860     3.6300 no         1 ECW       0.621500
     20 NAP         19.6330    15.3950     3.1840 n          1 ECW      -0.403800
     21 OAA         14.2800    13.9950     4.4420 os         1 ECW      -0.141000
     22 OAG         11.1830    13.2160     2.8760 o          1 ECW      -0.359000
     23 OAH         11.6660    14.7010     4.4040 o          1 ECW      -0.359000
     24 OAK         16.8050    14.7680     5.6920 o          1 ECW      -0.414000
     25 OAL         17.8760    13.1840     4.4390 os         1 ECW      -0.426100
     26 OAO         20.1050    15.6980     5.4400 o          1 ECW      -0.582100
     27 Br          13.3300    11.2370     1.5610 br         1 ECW       0.021900
     28 H1          16.1920    11.8300     2.8610 ha         1 ECW       0.184000
     29 H2          19.1770    13.4970     6.0630 h1         1 ECW       0.084700
     30 H3          19.9360    12.8390     4.6130 h1         1 ECW       0.084700
     31 H4          19.5630    13.3720     2.4930 h1         1 ECW       0.057200
     32 H5          20.0920    14.4960     1.3080 h1         1 ECW       0.057200
     33 H6          18.4170    12.7390     0.1640 ha         1 ECW       0.115000
     34 H7          16.1610    12.6740    -0.8700 ha         1 ECW       0.116500
     35 H8          14.3970    14.2740    -0.1330 ha         1 ECW       0.117000
     36 H9          14.8990    15.9360     1.6560 ha         1 ECW       0.116500
     37 H10         17.1340    16.0000     2.7060 ha         1 ECW       0.115000
     38 H11         20.1820    18.1140     1.0170 hc         1 ECW       0.046811
     39 H12         20.4380    16.4360     0.5900 hc         1 ECW       0.046811
     40 H13         18.8070    17.0150     1.0030 hc         1 ECW       0.046811
     41 H14         19.6770    17.9450     4.6050 hc         1 ECW       0.046811
     42 H15         19.6650    18.8980     3.1380 hc         1 ECW       0.046811
     43 H16         18.3130    17.8090     3.4820 hc         1 ECW       0.046811
     44 H17         21.9460    16.7670     4.0160 hc         1 ECW       0.046811
     45 H18         22.1700    16.0640     2.4050 hc         1 ECW       0.046811
     46 H19         22.0500    17.8230     2.6060 hc         1 ECW       0.046811
@<TRIPOS>BOND
     1     1     2 2   
     2     1    19 1   
     3     1    21 1   
     4     2     3 1   
     5     2    27 1   
     6     3     4 2   
     7     3    28 1   
     8     4     5 1   
     9     4    21 1   
    10     5    24 2   
    11     5    25 1   
    12     6     7 1   
    13     6    25 1   
    14     6    29 1   
    15     6    30 1   
    16     7    20 1   
    17     7    26 2   
    18     8     9 1   
    19     8    20 1   
    20     8    31 1   
    21     8    32 1   
    22     9    10 ar  
    23     9    14 ar  
    24    10    11 ar  
    25    10    33 1   
    26    11    12 ar  
    27    11    34 1   
    28    12    13 ar  
    29    12    35 1   
    30    13    14 ar  
    31    13    36 1   
    32    14    37 1   
    33    15    16 1   
    34    15    17 1   
    35    15    18 1   
    36    15    20 1   
    37    16    38 1   
    38    16    39 1   
    39    16    40 1   
    40    17    41 1   
    41    17    42 1   
    42    17    43 1   
    43    18    44 1   
    44    18    45 1   
    45    18    46 1   
    46    19    22 1   
    47    19    23 1   
@<TRIPOS>SUBSTRUCTURE
     1 ECW         1 TEMP              0 ****  ****    0 ROOT
