@<TRIPOS>MOLECULE
ECX
   19    18     1     0     0
SMALL
bcc


@<TRIPOS>ATOM
      1 C           11.1810    17.5080    13.5950 c          1 ECX       0.941600
      2 N            9.2900    17.1680    12.0160 n8         1 ECX      -0.884800
      3 O           12.3990    17.3700    13.8190 o          1 ECX      -0.831800
      4 CA          10.6220    16.7190    12.3800 c3         1 ECX       0.026500
      5 CB          11.5450    16.8150    11.1760 c3         1 ECX       0.057700
      6 SC          11.5170    18.5070    10.5080 ss         1 ECX      -0.306200
      7 CD          13.1500    18.5660     9.7140 c3         1 ECX      -0.010300
      8 CE          13.3250    19.8940     8.9980 c3         1 ECX      -0.070100
      9 OXT         10.3640    18.1640    14.2690 o          1 ECX      -0.831800
     10 H            8.8020    16.4400    11.5100 hn         1 ECX       0.327800
     11 H2           8.7680    17.3490    12.8620 hn         1 ECX       0.327800
     12 HA          10.6360    15.6590    12.6890 h1         1 ECX      -0.000300
     13 HB2         12.5640    16.5710    11.4730 h1         1 ECX       0.039700
     14 HB3         11.2450    16.1140    10.3940 h1         1 ECX       0.039700
     15 HD          13.9240    18.4340    10.4730 h1         1 ECX       0.045200
     16 HDA         13.2390    17.7410     9.0060 h1         1 ECX       0.045200
     17 HE          14.3080    19.9450     8.5300 hc         1 ECX       0.028033
     18 HEA         12.5750    20.0240     8.2170 hc         1 ECX       0.028033
     19 HEB         13.2410    20.7340     9.6890 hc         1 ECX       0.028033
@<TRIPOS>BOND
     1     1     3 1   
     2     1     4 1   
     3     1     9 1   
     4     2     4 1   
     5     2    10 1   
     6     2    11 1   
     7     4     5 1   
     8     4    12 1   
     9     5     6 1   
    10     5    13 1   
    11     5    14 1   
    12     6     7 1   
    13     7     8 1   
    14     7    15 1   
    15     7    16 1   
    16     8    17 1   
    17     8    18 1   
    18     8    19 1   
@<TRIPOS>SUBSTRUCTURE
     1 ECX         1 TEMP              0 ****  ****    0 ROOT
