@<TRIPOS>MOLECULE
ECX
   19    18     1     0     0
SMALL
No Charge or Current Charge


@<TRIPOS>ATOM
      1 C           11.0570    17.5500    13.8130 c          1 ECX       0.941600
      2 N            9.2020    16.9910    11.9620 n8         1 ECX      -0.884800
      3 O           12.0940    17.1980    14.3710 o          1 ECX      -0.831800
      4 CA          10.6090    16.7780    12.4900 c3         1 ECX       0.026500
      5 CB          11.6610    16.9740    11.3670 c3         1 ECX       0.057700
      6 SC          11.7850    18.7350    10.8030 ss         1 ECX      -0.306200
      7 CD          13.1030    18.5640     9.5230 c3         1 ECX      -0.010300
      8 CE          13.4090    19.9250     8.8770 c3         1 ECX      -0.070100
      9 OXT         10.3100    18.3930    14.3060 o          1 ECX      -0.831800
     10 H            9.0050    16.3080    11.2250 hn         1 ECX       0.327800
     11 H2           8.5270    16.7790    12.7050 hn         1 ECX       0.327800
     12 HA          10.6430    15.7130    12.7580 h1         1 ECX      -0.000300
     13 HB2         12.6470    16.6550    11.7290 h1         1 ECX       0.039700
     14 HB3         11.4030    16.3460    10.5050 h1         1 ECX       0.039700
     15 HD          14.0110    18.1640     9.9930 h1         1 ECX       0.045200
     16 HDA         12.7670    17.8560     8.7540 h1         1 ECX       0.045200
     17 HE          14.1920    19.8180     8.1170 hc         1 ECX       0.028033
     18 HEA         12.5140    20.3340     8.3930 hc         1 ECX       0.028033
     19 HEB         13.7560    20.6420     9.6310 hc         1 ECX       0.028033
@<TRIPOS>BOND
     1     1     3 1   
     2     1     4 1   
     3     1     9 1   
     4     2     4 1   
     5     2    10 1   
     6     2    11 1   
     7     4     5 1   
     8     4    12 1   
     9     5     6 1   
    10     5    13 1   
    11     5    14 1   
    12     6     7 1   
    13     7     8 1   
    14     7    15 1   
    15     7    16 1   
    16     8    17 1   
    17     8    18 1   
    18     8    19 1   
@<TRIPOS>SUBSTRUCTURE
     1 ECX         1 TEMP              0 ****  ****    0 ROOT
