@<TRIPOS>MOLECULE
ECY
   84    89     1     0     0
SMALL
abcg2


@<TRIPOS>ATOM
      1 CAA          8.8420    -0.9120     1.9820 c3         1 ECY      -0.046800
      2 CAB          9.0780     1.0500    -2.6700 c3         1 ECY      -0.046800
      3 CAC         -3.3610     3.6910    -2.3160 c3         1 ECY      -0.116400
      4 CAD         -5.1680     2.7970     2.3720 c3         1 ECY      -0.038800
      5 CAE         -7.3830     3.1310     0.3140 c3         1 ECY       0.069900
      6 CAJ         -4.6730    -4.3070    -2.7860 ca         1 ECY      -0.150000
      7 CAK         -0.4790     4.4140     1.5850 ca         1 ECY      -0.154000
      8 CAL         -3.3230    -4.0520    -2.5680 ca         1 ECY      -0.130000
      9 CAM         -5.5850    -4.1570    -1.7540 ca         1 ECY      -0.078000
     10 CAN         -1.8010     4.3660     1.1190 ca         1 ECY      -0.091000
     11 CAO          0.2820     3.2680     1.6430 ca         1 ECY      -0.063000
     12 CAP          6.7950    -0.1220     0.7760 ca         1 ECY      -0.175000
     13 CAQ          6.9130     0.8110    -1.4380 ca         1 ECY      -0.175000
     14 CAR         -3.8100    -3.5240    -0.2810 ca         1 ECY      -0.075000
     15 CAS          2.5810     0.6640     0.3430 c3         1 ECY      -0.082400
     16 CAT         -3.0070    -0.2800    -1.5190 c3         1 ECY      -0.111400
     17 CAU          4.0100     0.3080     0.6940 c3         1 ECY       0.161600
     18 CAV          1.6310     0.3420     1.5010 c3         1 ECY      -0.002200
     19 CAW         -1.6620    -0.9510    -1.7840 c3         1 ECY       0.107000
     20 CAX         -3.1390     0.1400    -0.0610 c3         1 ECY       0.062600
     21 CAY         -1.4360    -3.3210    -1.0620 c3         1 ECY       0.152300
     22 CBB         -6.1600    -3.5820     0.6540 c          1 ECY       0.711600
     23 CBC         -0.7590    -1.5080     0.4260 c          1 ECY       0.595200
     24 CBD          8.1770    -0.3080     0.7820 ca         1 ECY      -0.026300
     25 CBE          8.2890     0.6390    -1.4650 ca         1 ECY      -0.026300
     26 CBF         -4.2180     3.4420    -1.1240 cc         1 ECY       0.269300
     27 CBG         -2.8840    -3.6560    -1.3110 ca         1 ECY      -0.153300
     28 CBH          6.1590     0.4350    -0.3270 ca         1 ECY       0.165100
     29 CBI         -4.9620     3.0700     0.9270 cd         1 ECY      -0.110300
     30 CBJ         -5.1630    -3.7620    -0.4840 ca         1 ECY      -0.140600
     31 CBK          8.8980     0.0760    -0.3420 ca         1 ECY       0.074000
     32 CBL         -2.4110     3.1920     0.7050 ca         1 ECY      -0.004000
     33 CBM          0.2250     0.7310     1.1870 cc         1 ECY      -0.105400
     34 CBN         -3.7950     3.2300     0.2050 cc         1 ECY      -0.173000
     35 CBO         -0.7870    -0.0450     0.6890 cd         1 ECY      -0.110300
     36 CBP         -0.2920     2.0600     1.2340 ca         1 ECY      -0.113800
     37 CBQ         -1.6280     2.0230     0.7660 ca         1 ECY      -0.012200
     38 NAZ         -5.5350     3.4050    -1.2040 nd         1 ECY      -0.531800
     39 NBR         -1.2710    -1.9090    -0.7580 n          1 ECY      -0.401800
     40 NBS         -5.9690     3.1710     0.0370 na         1 ECY       0.134800
     41 NBT         -1.9080     0.7220     0.4420 na         1 ECY      -0.058700
     42 OAF         -7.3550    -3.8140     0.3890 o          1 ECY      -0.718500
     43 OAH         -5.6960    -3.2150     1.7500 o          1 ECY      -0.718500
     44 OBA          4.8330     0.6460    -0.4110 os         1 ECY      -0.345100
     45 CLAI        10.6230    -0.1540    -0.3530 cl         1 ECY      -0.227000
     46 H1           9.3500    -1.8440     1.7280 hc         1 ECY       0.047200
     47 H2           9.5940    -0.2430     2.4030 hc         1 ECY       0.047200
     48 H3           8.1120    -1.1280     2.7600 hc         1 ECY       0.047200
     49 H4           9.8310     1.7990    -2.4210 hc         1 ECY       0.047200
     50 H5           9.6050     0.2020    -3.1090 hc         1 ECY       0.047200
     51 H6           8.4270     1.4720    -3.4330 hc         1 ECY       0.047200
     52 H7          -2.8700     4.6630    -2.2560 hc         1 ECY       0.044700
     53 H8          -2.5710     2.9430    -2.4020 hc         1 ECY       0.044700
     54 H9          -3.9500     3.6680    -3.2320 hc         1 ECY       0.044700
     55 H10         -5.5400     1.7840     2.5420 hc         1 ECY       0.057367
     56 H11         -4.2250     2.8950     2.9070 hc         1 ECY       0.057367
     57 H12         -5.8790     3.4890     2.8240 hc         1 ECY       0.057367
     58 H13         -7.7560     4.1060     0.6290 h1         1 ECY       0.056700
     59 H14         -7.9080     2.8270    -0.5880 h1         1 ECY       0.056700
     60 H15         -7.5910     2.4060     1.0980 h1         1 ECY       0.056700
     61 H16         -5.0100    -4.6140    -3.7680 ha         1 ECY       0.088000
     62 H17         -0.0610     5.3630     1.8950 ha         1 ECY       0.103000
     63 H18         -2.6130    -4.1570    -3.3800 ha         1 ECY       0.083000
     64 H19         -6.6360    -4.3460    -1.9310 ha         1 ECY       0.128000
     65 H20         -2.3770     5.2820     1.0720 ha         1 ECY       0.107000
     66 H21          1.3040     3.3010     2.0020 ha         1 ECY       0.107000
     67 H22          6.2390    -0.4260     1.6530 ha         1 ECY       0.126500
     68 H23          6.4130     1.2450    -2.2950 ha         1 ECY       0.126500
     69 H24         -3.4760    -3.2180     0.7040 ha         1 ECY       0.133000
     70 H25          2.5190     1.7270     0.0980 hc         1 ECY       0.057700
     71 H26          2.2680     0.1100    -0.5460 hc         1 ECY       0.057700
     72 H27         -3.0920     0.5880    -2.1770 hc         1 ECY       0.066700
     73 H28         -3.8320    -0.9530    -1.7580 hc         1 ECY       0.066700
     74 H29          4.3290     0.8570     1.5880 h1         1 ECY       0.035200
     75 H30          4.0920    -0.7620     0.9180 h1         1 ECY       0.035200
     76 H31          1.6880    -0.7210     1.7370 hc         1 ECY       0.054200
     77 H32          1.9620     0.8730     2.3980 hc         1 ECY       0.054200
     78 H33         -1.6890    -1.4770    -2.7390 h1         1 ECY       0.047200
     79 H34         -0.8790    -0.1960    -1.8830 h1         1 ECY       0.047200
     80 H35         -3.9470     0.8530     0.0580 h1         1 ECY       0.086700
     81 H36         -3.3960    -0.7190     0.5610 h1         1 ECY       0.086700
     82 H37         -1.0460    -3.8980    -0.2260 h1         1 ECY       0.054700
     83 H38         -0.8310    -3.5740    -1.9370 h1         1 ECY       0.054700
     84 OAG         -0.2860    -2.2750     1.2550 o          1 ECY      -0.556000
@<TRIPOS>BOND
     1     1    24 1   
     2     1    46 1   
     3     1    47 1   
     4     1    48 1   
     5     2    25 1   
     6     2    49 1   
     7     2    50 1   
     8     2    51 1   
     9     3    26 1   
    10     3    52 1   
    11     3    53 1   
    12     3    54 1   
    13     4    29 1   
    14     4    55 1   
    15     4    56 1   
    16     4    57 1   
    17     5    40 1   
    18     5    58 1   
    19     5    59 1   
    20     5    60 1   
    21     6     8 ar  
    22     6     9 ar  
    23     6    61 1   
    24     7    10 ar  
    25     7    11 ar  
    26     7    62 1   
    27     8    27 ar  
    28     8    63 1   
    29     9    30 ar  
    30     9    64 1   
    31    10    32 ar  
    32    10    65 1   
    33    11    36 ar  
    34    11    66 1   
    35    12    24 ar  
    36    12    28 ar  
    37    12    67 1   
    38    13    25 ar  
    39    13    28 ar  
    40    13    68 1   
    41    14    27 ar  
    42    14    30 ar  
    43    14    69 1   
    44    15    17 1   
    45    15    18 1   
    46    15    70 1   
    47    15    71 1   
    48    16    19 1   
    49    16    20 1   
    50    16    72 1   
    51    16    73 1   
    52    17    44 1   
    53    17    74 1   
    54    17    75 1   
    55    18    33 1   
    56    18    76 1   
    57    18    77 1   
    58    19    39 1   
    59    19    78 1   
    60    19    79 1   
    61    20    41 1   
    62    20    80 1   
    63    20    81 1   
    64    21    27 1   
    65    21    39 1   
    66    21    82 1   
    67    21    83 1   
    68    22    30 1   
    69    22    42 1   
    70    22    43 1   
    71    23    35 1   
    72    23    39 1   
    73    23    84 2   
    74    24    31 ar  
    75    25    31 ar  
    76    26    34 1   
    77    26    38 2   
    78    28    44 1   
    79    29    34 2   
    80    29    40 1   
    81    31    45 1   
    82    32    34 1   
    83    32    37 ar  
    84    33    35 2   
    85    33    36 1   
    86    35    41 1   
    87    36    37 ar  
    88    37    41 1   
    89    38    40 1   
@<TRIPOS>SUBSTRUCTURE
     1 ECY         1 TEMP              0 ****  ****    0 ROOT
