@<TRIPOS>MOLECULE
ECY
   84    89     1     0     0
SMALL
No Charge or Current Charge


@<TRIPOS>ATOM
      1 CAA          8.9930    -1.0670     1.9870 c3         1 ECY      -0.046800
      2 CAB          9.2970     1.3810    -2.4970 c3         1 ECY      -0.046800
      3 CAC         -2.9180     2.9810    -2.2930 c3         1 ECY      -0.116400
      4 CAD         -5.1880     3.9240     2.2060 c3         1 ECY      -0.038800
      5 CAE         -7.2390     3.9790    -0.1810 c3         1 ECY       0.069900
      6 CAJ         -5.0580    -4.6680    -2.6600 ca         1 ECY      -0.150000
      7 CAK         -0.7120     4.1260     2.3800 ca         1 ECY      -0.154000
      8 CAL         -3.7630    -4.1400    -2.7590 ca         1 ECY      -0.130000
      9 CAM         -5.6500    -4.8630    -1.4000 ca         1 ECY      -0.078000
     10 CAN         -1.9650     4.2380     1.7420 ca         1 ECY      -0.091000
     11 CAO          0.0880     2.9890     2.1730 ca         1 ECY      -0.063000
     12 CAP          6.9410    -0.1390     0.8230 ca         1 ECY      -0.175000
     13 CAQ          7.0890     1.0240    -1.3070 ca         1 ECY      -0.175000
     14 CAR         -3.6430    -3.9990    -0.3320 ca         1 ECY      -0.075000
     15 CAS          2.6380     0.7140     0.3530 c3         1 ECY      -0.082400
     16 CAT         -3.6720    -0.3580    -1.2590 c3         1 ECY      -0.111400
     17 CAU          4.0670     0.3000     0.7460 c3         1 ECY       0.161600
     18 CAV          1.5800     0.2890     1.3910 c3         1 ECY      -0.002200
     19 CAW         -2.4430    -0.8490    -2.0430 c3         1 ECY       0.107000
     20 CAX         -3.3000     0.2390     0.1110 c3         1 ECY       0.062600
     21 CAY         -1.6480    -3.2100    -1.6890 c3         1 ECY       0.152300
     22 CBB         -5.5880    -4.7370     1.1480 c          1 ECY       0.711600
     23 CBC         -0.5720    -1.3250    -0.4090 c          1 ECY       0.595200
     24 CBD          8.3370    -0.3310     0.8230 ca         1 ECY      -0.026300
     25 CBE          8.4850     0.8420    -1.3250 ca         1 ECY      -0.026300
     26 CBF         -3.9610     3.2390    -1.2370 cc         1 ECY       0.269300
     27 CBG         -3.0490    -3.8030    -1.5950 ca         1 ECY      -0.153300
     28 CBH          6.3150     0.5400    -0.2430 ca         1 ECY       0.165100
     29 CBI         -4.8570     3.7200     0.7450 cd         1 ECY      -0.110300
     30 CBJ         -4.9500    -4.5300    -0.2160 ca         1 ECY      -0.140600
     31 CBK          9.1090     0.1620    -0.2540 ca         1 ECY       0.074000
     32 CBL         -2.4430     3.2120     0.8950 ca         1 ECY      -0.004000
     33 CBM          0.1830     0.7110     0.9930 cc         1 ECY      -0.105400
     34 CBN         -3.6710     3.4430     0.1280 cc         1 ECY      -0.173000
     35 CBO         -0.7570     0.0510     0.1870 cd         1 ECY      -0.110300
     36 CBP         -0.4220     1.9610     1.3650 ca         1 ECY      -0.113800
     37 CBQ         -1.6560     2.0390     0.7790 ca         1 ECY      -0.012200
     38 NAZ         -5.2310     3.4190    -1.5320 nd         1 ECY      -0.531800
     39 NBR         -1.5980    -1.7890    -1.2740 n          1 ECY      -0.401800
     40 NBS         -5.7960     3.7190    -0.2980 na         1 ECY       0.134800
     41 NBT         -1.9450     0.8310     0.1470 na         1 ECY      -0.058700
     42 OAF         -6.7210    -5.1940     1.2020 o          1 ECY      -0.718500
     43 OAH         -4.9450    -4.4410     2.1460 o          1 ECY      -0.718500
     44 OBA          4.9530     0.7540    -0.2910 os         1 ECY      -0.345100
     45 ClAI        10.8640    -0.0740    -0.2630 cl         1 ECY      -0.227000
     46 H1           9.5140    -1.9670     1.6400 hc         1 ECY       0.047200
     47 H2           9.7250    -0.4280     2.4950 hc         1 ECY       0.047200
     48 H3           8.2590    -1.3830     2.7370 hc         1 ECY       0.047200
     49 H4          10.0400     2.1130    -2.1580 hc         1 ECY       0.047200
     50 H5           9.8290     0.5730    -3.0130 hc         1 ECY       0.047200
     51 H6           8.6620     1.8800    -3.2390 hc         1 ECY       0.047200
     52 H7          -2.7500     3.8870    -2.8860 hc         1 ECY       0.044700
     53 H8          -1.9540     2.6910    -1.8650 hc         1 ECY       0.044700
     54 H9          -3.2360     2.1910    -2.9820 hc         1 ECY       0.044700
     55 H10         -6.1970     3.5680     2.4450 hc         1 ECY       0.057367
     56 H11         -4.4920     3.3770     2.8530 hc         1 ECY       0.057367
     57 H12         -5.1340     4.9850     2.4750 hc         1 ECY       0.057367
     58 H13         -7.3990     4.8950     0.4000 h1         1 ECY       0.056700
     59 H14         -7.6810     4.1020    -1.1770 h1         1 ECY       0.056700
     60 H15         -7.7200     3.1360     0.3280 h1         1 ECY       0.056700
     61 H16         -5.6080    -4.9260    -3.5620 ha         1 ECY       0.088000
     62 H17         -0.3490     4.9370     3.0080 ha         1 ECY       0.103000
     63 H18         -3.3160    -3.9880    -3.7390 ha         1 ECY       0.083000
     64 H19         -6.6560    -5.2730    -1.3480 ha         1 ECY       0.128000
     65 H20         -2.5440     5.1500     1.8650 ha         1 ECY       0.107000
     66 H21          1.0680     2.9130     2.6360 ha         1 ECY       0.107000
     67 H22          6.3580    -0.5210     1.6560 ha         1 ECY       0.126500
     68 H23          6.5950     1.5450    -2.1230 ha         1 ECY       0.126500
     69 H24         -3.0850    -3.7300     0.5620 ha         1 ECY       0.133000
     70 H25          2.6000     1.8030     0.2270 hc         1 ECY       0.057700
     71 H26          2.3880     0.2670    -0.6170 hc         1 ECY       0.057700
     72 H27         -4.1990     0.3920    -1.8580 hc         1 ECY       0.066700
     73 H28         -4.3770    -1.1850    -1.1130 hc         1 ECY       0.066700
     74 H29          4.3300     0.7580     1.7080 h1         1 ECY       0.035200
     75 H30          4.1170    -0.7920     0.8480 h1         1 ECY       0.035200
     76 H31          1.6360    -0.7910     1.5620 hc         1 ECY       0.054200
     77 H32          1.8370     0.7370     2.3580 hc         1 ECY       0.054200
     78 H33         -2.7860    -1.3360    -2.9650 h1         1 ECY       0.047200
     79 H34         -1.8310     0.0090    -2.3540 h1         1 ECY       0.047200
     80 H35         -4.0590     0.9600     0.4310 h1         1 ECY       0.086700
     81 H36         -3.3100    -0.5720     0.8500 h1         1 ECY       0.086700
     82 H37         -0.9820    -3.8160    -1.0620 h1         1 ECY       0.054700
     83 H38         -1.2790    -3.2870    -2.7210 h1         1 ECY       0.054700
     84 OAG          0.3930    -2.0360    -0.1610 o          1 ECY      -0.556000
@<TRIPOS>BOND
     1     1    24 1   
     2     1    46 1   
     3     1    47 1   
     4     1    48 1   
     5     2    25 1   
     6     2    49 1   
     7     2    50 1   
     8     2    51 1   
     9     3    26 1   
    10     3    52 1   
    11     3    53 1   
    12     3    54 1   
    13     4    29 1   
    14     4    55 1   
    15     4    56 1   
    16     4    57 1   
    17     5    40 1   
    18     5    58 1   
    19     5    59 1   
    20     5    60 1   
    21     6     8 ar  
    22     6     9 ar  
    23     6    61 1   
    24     7    10 ar  
    25     7    11 ar  
    26     7    62 1   
    27     8    27 ar  
    28     8    63 1   
    29     9    30 ar  
    30     9    64 1   
    31    10    32 ar  
    32    10    65 1   
    33    11    36 ar  
    34    11    66 1   
    35    12    24 ar  
    36    12    28 ar  
    37    12    67 1   
    38    13    25 ar  
    39    13    28 ar  
    40    13    68 1   
    41    14    27 ar  
    42    14    30 ar  
    43    14    69 1   
    44    15    17 1   
    45    15    18 1   
    46    15    70 1   
    47    15    71 1   
    48    16    19 1   
    49    16    20 1   
    50    16    72 1   
    51    16    73 1   
    52    17    44 1   
    53    17    74 1   
    54    17    75 1   
    55    18    33 1   
    56    18    76 1   
    57    18    77 1   
    58    19    39 1   
    59    19    78 1   
    60    19    79 1   
    61    20    41 1   
    62    20    80 1   
    63    20    81 1   
    64    21    27 1   
    65    21    39 1   
    66    21    82 1   
    67    21    83 1   
    68    22    30 1   
    69    22    42 1   
    70    22    43 1   
    71    23    35 1   
    72    23    39 1   
    73    23    84 2   
    74    24    31 ar  
    75    25    31 ar  
    76    26    34 1   
    77    26    38 2   
    78    28    44 1   
    79    29    34 2   
    80    29    40 1   
    81    31    45 1   
    82    32    34 1   
    83    32    37 ar  
    84    33    35 2   
    85    33    36 1   
    86    35    41 1   
    87    36    37 ar  
    88    37    41 1   
    89    38    40 1   
@<TRIPOS>SUBSTRUCTURE
     1 ECY         1 TEMP              0 ****  ****    0 ROOT
