@<TRIPOS>MOLECULE
ECZ
   34    36     1     0     0
SMALL
No Charge or Current Charge


@<TRIPOS>ATOM
      1 CAA         -4.0860     3.7100    -0.3180 c3         1 ECZ       0.141900
      2 OAB         -3.2340     2.5560    -0.2090 os         1 ECZ      -0.309100
      3 CAC         -3.7300     1.2640    -0.0990 ca         1 ECZ       0.156100
      4 CAH         -2.8050     0.1840     0.0040 ca         1 ECZ       0.151400
      5 NAI         -1.4190     0.4730    -0.0120 nc         1 ECZ      -0.594100
      6 CAD         -5.1230     1.0160    -0.0890 ca         1 ECZ      -0.181000
      7 CAE         -5.6070    -0.2940     0.0240 ca         1 ECZ      -0.085000
      8 CAF         -4.7090    -1.3640     0.1270 ca         1 ECZ      -0.083000
      9 CAG         -3.3180    -1.1280     0.1170 ca         1 ECZ      -0.164600
     10 CAL         -2.3620    -2.2570     0.2320 c          1 ECZ       0.575600
     11 OAM         -2.6920    -3.4280     0.3460 o          1 ECZ      -0.534000
     12 NAK         -1.0660    -1.8840     0.2050 ns         1 ECZ      -0.426400
     13 CAJ         -0.6250    -0.5980     0.0810 cd         1 ECZ       0.535500
     14 CAN          0.8420    -0.3760     0.0740 ca         1 ECZ      -0.112900
     15 CAO          1.3900     0.8630     0.4830 ca         1 ECZ      -0.084000
     16 CAP          2.7770     1.0880     0.4460 ca         1 ECZ      -0.067000
     17 CAQ          3.6550     0.0900    -0.0220 ca         1 ECZ      -0.180300
     18 CAT          5.1700     0.3310    -0.0540 c3         1 ECZ       0.357300
     19 FAV          5.7530    -0.0570     1.1030 f          1 ECZ      -0.111333
     20 FAW          5.7790    -0.3500    -1.0510 f          1 ECZ      -0.111333
     21 FAU          5.4800     1.6360    -0.2340 f          1 ECZ      -0.111333
     22 CAR          3.1150    -1.1420    -0.4460 ca         1 ECZ      -0.067000
     23 CAS          1.7280    -1.3680    -0.4090 ca         1 ECZ      -0.084000
     24 HAA1        -4.7170     3.6460    -1.2140 h1         1 ECZ       0.043367
     25 HAA2        -4.7310     3.8030     0.5640 h1         1 ECZ       0.043367
     26 HAA3        -3.4810     4.6220    -0.3940 h1         1 ECZ       0.043367
     27 HAD         -5.8430     1.8250    -0.1660 ha         1 ECZ       0.122000
     28 HAE         -6.6790    -0.4820     0.0320 ha         1 ECZ       0.119000
     29 HAF         -5.0960    -2.3780     0.2150 ha         1 ECZ       0.140000
     30 HAK         -0.3980    -2.6320     0.3070 hn         1 ECZ       0.332500
     31 HAO          0.7430     1.6580     0.8470 ha         1 ECZ       0.136000
     32 HAS          1.3530    -2.3230    -0.7720 ha         1 ECZ       0.136000
     33 HAP          3.1640     2.0480     0.7850 ha         1 ECZ       0.135500
     34 HAR          3.7680    -1.9320    -0.8130 ha         1 ECZ       0.135500
@<TRIPOS>BOND
     1     1     2 1   
     2     1    24 1   
     3     1    25 1   
     4     1    26 1   
     5     2     3 1   
     6     3     4 ar  
     7     3     6 ar  
     8     4     5 1   
     9     4     9 ar  
    10     5    13 2   
    11     6     7 ar  
    12     6    27 1   
    13     7     8 ar  
    14     7    28 1   
    15     8     9 ar  
    16     8    29 1   
    17     9    10 1   
    18    10    11 2   
    19    10    12 1   
    20    12    13 1   
    21    12    30 1   
    22    13    14 1   
    23    14    15 ar  
    24    14    23 ar  
    25    15    16 ar  
    26    15    31 1   
    27    16    17 ar  
    28    16    33 1   
    29    17    18 1   
    30    17    22 ar  
    31    18    19 1   
    32    18    20 1   
    33    18    21 1   
    34    22    23 ar  
    35    22    34 1   
    36    23    32 1   
@<TRIPOS>SUBSTRUCTURE
     1 ECZ         1 TEMP              0 ****  ****    0 ROOT
