@<TRIPOS>MOLECULE
ECZ
   34    36     1     0     0
SMALL
bcc


@<TRIPOS>ATOM
      1 CAA         -3.9140     3.6080    -0.2260 c3         1 ECZ       0.118700
      2 OAB         -3.0830     2.4640    -0.1580 os         1 ECZ      -0.285900
      3 CAC         -3.6640     1.2620    -0.0780 ca         1 ECZ       0.156100
      4 CAH         -2.7820     0.1530    -0.0060 ca         1 ECZ       0.151400
      5 NAI         -1.4350     0.3930    -0.0340 nc         1 ECZ      -0.594100
      6 CAD         -5.0290     1.0410    -0.0610 ca         1 ECZ      -0.199000
      7 CAE         -5.5420    -0.2580     0.0270 ca         1 ECZ      -0.103000
      8 CAF         -4.7040    -1.3460     0.1000 ca         1 ECZ      -0.101000
      9 CAG         -3.3230    -1.1350     0.0830 ca         1 ECZ      -0.164600
     10 CAL         -2.4050    -2.2650     0.1760 c          1 ECZ       0.718100
     11 OAM         -2.7320    -3.4340     0.2750 o          1 ECZ      -0.609500
     12 NAK         -1.0780    -1.8970     0.1570 ns         1 ECZ      -0.493400
     13 CAJ         -0.6380    -0.6110     0.0430 cd         1 ECZ       0.535500
     14 CAN          0.8200    -0.3840     0.0100 ca         1 ECZ      -0.112900
     15 CAO          1.3140     0.8700     0.3680 ca         1 ECZ      -0.102000
     16 CAP          2.6720     1.1200     0.3480 ca         1 ECZ      -0.085000
     17 CAQ          3.5590     0.1200    -0.0410 ca         1 ECZ      -0.180300
     18 CAT          5.0300     0.4010    -0.0180 c3         1 ECZ       0.721200
     19 FAV          5.5080     0.3920     1.2350 f          1 ECZ      -0.232633
     20 FAW          5.7350    -0.4960    -0.7110 f          1 ECZ      -0.232633
     21 FAU          5.3150     1.6060    -0.5270 f          1 ECZ      -0.232633
     22 CAR          3.0780    -1.1270    -0.4080 ca         1 ECZ      -0.085000
     23 CAS          1.7140    -1.3760    -0.3810 ca         1 ECZ      -0.102000
     24 HAA1        -4.5430     3.6020    -1.1200 h1         1 ECZ       0.043367
     25 HAA2        -4.5510     3.7010     0.6560 h1         1 ECZ       0.043367
     26 HAA3        -3.2490     4.4670    -0.2710 h1         1 ECZ       0.043367
     27 HAD         -5.7260     1.8660    -0.1150 ha         1 ECZ       0.140000
     28 HAE         -6.6140    -0.3960     0.0380 ha         1 ECZ       0.137000
     29 HAF         -5.0990    -2.3500     0.1720 ha         1 ECZ       0.158000
     30 HAK         -0.4090    -2.6480     0.2720 hn         1 ECZ       0.332500
     31 HAO          0.6270     1.6490     0.6680 ha         1 ECZ       0.154000
     32 HAS          1.3720    -2.3520    -0.7010 ha         1 ECZ       0.154000
     33 HAP          3.0300     2.0990     0.6410 ha         1 ECZ       0.153500
     34 HAR          3.7440    -1.9170    -0.7230 ha         1 ECZ       0.153500
@<TRIPOS>BOND
     1     1     2 1   
     2     1    24 1   
     3     1    25 1   
     4     1    26 1   
     5     2     3 1   
     6     3     4 ar  
     7     3     6 ar  
     8     4     5 1   
     9     4     9 ar  
    10     5    13 2   
    11     6     7 ar  
    12     6    27 1   
    13     7     8 ar  
    14     7    28 1   
    15     8     9 ar  
    16     8    29 1   
    17     9    10 1   
    18    10    11 2   
    19    10    12 1   
    20    12    13 1   
    21    12    30 1   
    22    13    14 1   
    23    14    15 ar  
    24    14    23 ar  
    25    15    16 ar  
    26    15    31 1   
    27    16    17 ar  
    28    16    33 1   
    29    17    18 1   
    30    17    22 ar  
    31    18    19 1   
    32    18    20 1   
    33    18    21 1   
    34    22    23 ar  
    35    22    34 1   
    36    23    32 1   
@<TRIPOS>SUBSTRUCTURE
     1 ECZ         1 TEMP              0 ****  ****    0 ROOT
