@<TRIPOS>MOLECULE
ED0
   34    36     1     0     0
SMALL
No Charge or Current Charge


@<TRIPOS>ATOM
      1 N1          28.4460     8.4100    20.0860 n3         1 ED0      -0.657200
      2 C4          28.0700    10.6930    19.5570 ca         1 ED0      -0.163300
      3 C5          28.2280    12.0250    19.1440 ca         1 ED0       0.348000
      4 C6          29.8380    13.5240    17.8230 ca         1 ED0       0.350000
      5 C7          30.2800    13.7560    16.4980 ca         1 ED0      -0.235300
      6 C8          29.9890    12.7500    15.3710 c3         1 ED0       0.358300
      7 C10         31.2530    15.8850    17.2270 ca         1 ED0      -0.134000
      8 C13         27.4010    13.0040    19.7310 ca         1 ED0      -0.160000
      9 C15         26.3280    11.3090    21.1250 ca         1 ED0      -0.126000
     10 N           29.0390     6.0150    19.7930 n1         1 ED0      -0.514000
     11 C           28.7810     7.1370    19.9470 c1         1 ED0       0.455800
     12 C1          28.8160     9.4730    19.0910 c5         1 ED0       0.302100
     13 C11         30.8300    15.6400    18.5390 ca         1 ED0      -0.061000
     14 C12         30.1280    14.4610    18.8320 ca         1 ED0      -0.142000
     15 C14         26.4570    12.6510    20.7200 ca         1 ED0      -0.069000
     16 C2          27.1940     8.8610    20.7830 c5         1 ED0       0.293100
     17 C3          27.1490    10.3450    20.5220 ca         1 ED0      -0.063300
     18 C9          30.9850    14.9520    16.2130 ca         1 ED0      -0.044000
     19 F           30.4750    11.5200    15.6560 f          1 ED0      -0.114000
     20 F1          28.6610    12.6130    15.1550 f          1 ED0      -0.114000
     21 F2          30.5340    13.1080    14.1860 f          1 ED0      -0.114000
     22 N2          29.1520    12.3510    18.1490 nu         1 ED0      -1.018000
     23 H1          31.7970    16.7980    16.9940 ha         1 ED0       0.125000
     24 H2          27.4710    14.0390    19.4110 ha         1 ED0       0.125000
     25 H3          25.6030    11.0260    21.8860 ha         1 ED0       0.123000
     26 H6          28.4960     9.2000    18.0760 h1         1 ED0       0.056200
     27 H7          29.9010     9.6470    19.0710 h1         1 ED0       0.056200
     28 H8          31.0480    16.3570    19.3280 ha         1 ED0       0.122000
     29 H9          29.8250    14.2690    19.8560 ha         1 ED0       0.132000
     30 H10         25.8240    13.4160    21.1650 ha         1 ED0       0.117000
     31 H11         26.3010     8.3780    20.3620 h1         1 ED0       0.061700
     32 H12         27.2240     8.6430    21.8590 h1         1 ED0       0.061700
     33 H13         31.3310    15.1720    15.2050 ha         1 ED0       0.133000
     34 H14         29.3340    11.5920    17.4970 hn         1 ED0       0.509000
@<TRIPOS>BOND
     1     1    11 1   
     2     1    12 1   
     3     1    16 1   
     4     2     3 ar  
     5     2    12 1   
     6     2    17 ar  
     7     3     8 ar  
     8     3    22 1   
     9     4     5 ar  
    10     4    14 ar  
    11     4    22 1   
    12     5     6 1   
    13     5    18 ar  
    14     6    19 1   
    15     6    20 1   
    16     6    21 1   
    17     7    13 ar  
    18     7    18 ar  
    19     7    23 1   
    20     8    15 ar  
    21     8    24 1   
    22     9    15 ar  
    23     9    17 ar  
    24     9    25 1   
    25    10    11 3   
    26    12    26 1   
    27    12    27 1   
    28    13    14 ar  
    29    13    28 1   
    30    14    29 1   
    31    15    30 1   
    32    16    17 1   
    33    16    31 1   
    34    16    32 1   
    35    18    33 1   
    36    22    34 1   
@<TRIPOS>SUBSTRUCTURE
     1 ED0         1 TEMP              0 ****  ****    0 ROOT
