@<TRIPOS>MOLECULE
ED0
   34    36     1     0     0
SMALL
bcc


@<TRIPOS>ATOM
      1 N1          28.3070     8.4290    20.1490 n3         1 ED0      -0.657200
      2 C4          28.1840    10.6290    19.5270 ca         1 ED0      -0.163300
      3 C5          28.3950    11.8970    18.9870 ca         1 ED0       0.209600
      4 C6          29.9910    13.3680    17.8390 ca         1 ED0       0.211600
      5 C7          30.1330    13.8510    16.5310 ca         1 ED0      -0.235300
      6 C8          29.6120    13.0600    15.3700 c3         1 ED0       0.722200
      7 C10         31.1770    15.8580    17.3680 ca         1 ED0      -0.152000
      8 C13         27.5040    12.9100    19.3540 ca         1 ED0      -0.178000
      9 C15         26.2510    11.3890    20.7620 ca         1 ED0      -0.144000
     10 N           29.0050     6.0710    20.3370 n1         1 ED0      -0.424800
     11 C           28.6780     7.1810    20.2460 c1         1 ED0       0.366600
     12 C1          29.0080     9.3990    19.3080 c5         1 ED0       0.302100
     13 C11         31.0010    15.4010    18.6670 ca         1 ED0      -0.079000
     14 C12         30.4250    14.1650    18.8980 ca         1 ED0      -0.160000
     15 C14         26.4580    12.6550    20.2300 ca         1 ED0      -0.087000
     16 C2          27.1310     8.9590    20.8420 c5         1 ED0       0.293100
     17 C3          27.1310    10.3860    20.3900 ca         1 ED0      -0.063300
     18 C9          30.7450    15.0810    16.3070 ca         1 ED0      -0.062000
     19 F           30.2990    11.9190    15.1870 f          1 ED0      -0.235300
     20 F1          28.3270    12.7140    15.5290 f          1 ED0      -0.235300
     21 F2          29.6840    13.7340    14.2200 f          1 ED0      -0.235300
     22 N2          29.4470    12.1120    18.1140 nu         1 ED0      -0.686000
     23 H1          31.6460    16.8140    17.1800 ha         1 ED0       0.143000
     24 H2          27.6180    13.9060    18.9450 ha         1 ED0       0.143000
     25 H3          25.4330    11.1960    21.4430 ha         1 ED0       0.141000
     26 H6          29.0220     9.0730    18.2620 h1         1 ED0       0.056200
     27 H7          30.0460     9.5290    19.6310 h1         1 ED0       0.056200
     28 H8          31.3360    15.9990    19.5050 ha         1 ED0       0.140000
     29 H9          30.3200    13.7960    19.9100 ha         1 ED0       0.150000
     30 H10         25.7860    13.4630    20.4890 ha         1 ED0       0.135000
     31 H11         26.2230     8.4280    20.5440 h1         1 ED0       0.061700
     32 H12         27.2360     8.8660    21.9260 h1         1 ED0       0.061700
     33 H13         30.8770    15.4520    15.3000 ha         1 ED0       0.151000
     34 H14         29.7550    11.3300    17.5590 hn         1 ED0       0.453800
@<TRIPOS>BOND
     1     1    11 1   
     2     1    12 1   
     3     1    16 1   
     4     2     3 ar  
     5     2    12 1   
     6     2    17 ar  
     7     3     8 ar  
     8     3    22 1   
     9     4     5 ar  
    10     4    14 ar  
    11     4    22 1   
    12     5     6 1   
    13     5    18 ar  
    14     6    19 1   
    15     6    20 1   
    16     6    21 1   
    17     7    13 ar  
    18     7    18 ar  
    19     7    23 1   
    20     8    15 ar  
    21     8    24 1   
    22     9    15 ar  
    23     9    17 ar  
    24     9    25 1   
    25    10    11 3   
    26    12    26 1   
    27    12    27 1   
    28    13    14 ar  
    29    13    28 1   
    30    14    29 1   
    31    15    30 1   
    32    16    17 1   
    33    16    31 1   
    34    16    32 1   
    35    18    33 1   
    36    22    34 1   
@<TRIPOS>SUBSTRUCTURE
     1 ED0         1 TEMP              0 ****  ****    0 ROOT
