@<TRIPOS>MOLECULE
ED1
  100   104     1     0     0
SMALL
abcg2


@<TRIPOS>ATOM
      1 NAE         -6.5550    -4.3010     2.9070 n1         1 ED1      -0.480000
      2 CAK         -5.5340    -4.0090     2.4560 cg         1 ED1       0.343000
      3 CBN         -4.2780    -3.6480     1.9010 ca         1 ED1      -0.094000
      4 CAQ         -4.1730    -2.5790     1.0100 ca         1 ED1      -0.019000
      5 CAU         -2.9550    -2.2230     0.4750 ca         1 ED1      -0.211500
      6 CAR         -3.1190    -4.3520     2.2340 ca         1 ED1      -0.019000
      7 CAV         -1.8990    -4.0010     1.7020 ca         1 ED1      -0.211500
      8 CBQ         -1.7700    -2.9220     0.8010 ca         1 ED1       0.375000
      9 NBW         -0.5740    -2.5680     0.2450 nh         1 ED1      -0.821400
     10 CBH          0.7050    -3.1460     0.6430 c3         1 ED1       0.298100
     11 CBR          1.4600    -3.7100    -0.5080 cc         1 ED1      -0.246300
     12 NBY          1.0640    -4.8110    -1.2230 na         1 ED1      -0.155500
     13 CAA         -0.1130    -5.6160    -0.9930 c3         1 ED1       0.057900
     14 CAX          1.9870    -5.0050    -2.1880 cc         1 ED1       0.392400
     15 NBJ          2.9420    -4.1110    -2.1470 nd         1 ED1      -0.667000
     16 CAW          2.6200    -3.2960    -1.1040 cd         1 ED1       0.262900
     17 CBF         -0.4530    -1.3920    -0.5860 c3         1 ED1       0.187800
     18 CBG         -0.3860    -0.1200     0.2630 c3         1 ED1       0.193800
     19 NBX         -0.2920     1.0960    -0.5320 n3         1 ED1      -0.798500
     20 CBI         -1.4760     1.5800    -1.2360 c3         1 ED1       0.244800
     21 CBU         -2.2960     2.6300    -0.4900 c6         1 ED1      -0.083700
     22 CBB         -2.7180     2.1820     0.9080 c6         1 ED1      -0.102400
     23 CBD         -3.6590     3.1920     1.5540 c6         1 ED1       0.100000
     24 NBV         -4.8090     3.4340     0.7010 n          1 ED1      -0.390800
     25 CBM         -5.9670     2.7680     0.9450 c          1 ED1       0.647100
     26 OBK         -6.8270     2.9000    -0.0610 os         1 ED1      -0.477100
     27 CBZ         -8.1570     2.3210    -0.0490 c3         1 ED1       0.224000
     28 CAB         -8.0910     0.7990     0.0160 c3         1 ED1      -0.107433
     29 CAD         -9.0000     2.9050     1.0780 c3         1 ED1      -0.107433
     30 CAC         -8.7230     2.7530    -1.3960 c3         1 ED1      -0.107433
     31 OAG         -6.1880     2.1530     1.9710 o          1 ED1      -0.549000
     32 CBE         -4.4360     3.9610    -0.6020 c6         1 ED1       0.100000
     33 CBC         -3.5220     2.9860    -1.3330 c6         1 ED1      -0.102400
     34 SCA          1.1350     1.8950    -0.6130 sy         1 ED1       1.183600
     35 OAI          0.8770     3.1630    -1.2820 o          1 ED1      -0.533000
     36 OAH          1.7360     1.8920     0.7090 o          1 ED1      -0.533000
     37 CBT          2.1670     0.9120    -1.6920 ca         1 ED1      -0.271500
     38 CAT          1.5340     0.2500    -2.7410 ca         1 ED1      -0.052000
     39 CAM          2.2560    -0.5670    -3.5920 ca         1 ED1      -0.136000
     40 CAL          3.6200    -0.7190    -3.3960 ca         1 ED1      -0.049000
     41 CAS          4.2530    -0.0250    -2.3800 ca         1 ED1      -0.123000
     42 CBS          3.5510     0.8190    -1.5150 cp         1 ED1       0.094000
     43 CBP          4.3400     1.5830    -0.5210 cp         1 ED1      -0.080000
     44 CAY          5.1890     0.9070     0.3490 ca         1 ED1      -0.086000
     45 CAP          4.3250     2.9760    -0.5130 ca         1 ED1      -0.114000
     46 CAN          5.1420     3.6680     0.3660 ca         1 ED1      -0.108000
     47 CAO          5.9810     2.9810     1.2350 ca         1 ED1      -0.099000
     48 CBO          6.0190     1.5890     1.2350 ca         1 ED1      -0.042300
     49 CBA          6.9840     0.8350     2.1060 c3         1 ED1      -0.024100
     50 CAZ          8.2940     0.5720     1.3660 c3         1 ED1      -0.204400
     51 CBL          9.3600    -0.2160     2.1480 c          1 ED1       0.718000
     52 OAF          9.0830    -0.5770     3.3080 o          1 ED1      -0.738500
     53 OAJ         10.4300    -0.4280     1.5400 o          1 ED1      -0.738500
     54 HAQ         -5.0530    -2.0150     0.7320 ha         1 ED1       0.120000
     55 HAU         -2.9450    -1.3910    -0.2110 ha         1 ED1       0.117500
     56 HAR         -3.1700    -5.1860     2.9210 ha         1 ED1       0.120000
     57 HAV         -1.0450    -4.5870     2.0050 ha         1 ED1       0.117500
     58 HBH          1.3290    -2.3770     1.1090 h1         1 ED1       0.068200
     59 HBHA         0.5560    -3.8980     1.4130 h1         1 ED1       0.068200
     60 HAA         -1.0200    -5.0280    -1.1220 h1         1 ED1       0.053033
     61 HAAA        -0.1270    -6.4370    -1.7040 h1         1 ED1       0.053033
     62 HAAB        -0.1040    -6.0340     0.0130 h1         1 ED1       0.053033
     63 HAX          1.9080    -5.8190    -2.8930 h5         1 ED1       0.050100
     64 HAW          3.2280    -2.4460    -0.8280 h4         1 ED1       0.051100
     65 HBF          0.4540    -1.4940    -1.1820 h1         1 ED1       0.065200
     66 HBFA        -1.2660    -1.3440    -1.3130 h1         1 ED1       0.065200
     67 HBG         -1.2670    -0.0520     0.9020 h1         1 ED1       0.070700
     68 HBGA         0.4640    -0.1800     0.9430 h1         1 ED1       0.070700
     69 HBI         -1.2010     1.9690    -2.2170 h1         1 ED1       0.047700
     70 HBIA        -2.1010     0.7040    -1.4330 h1         1 ED1       0.047700
     71 HBU         -1.6810     3.5310    -0.3890 hc         1 ED1       0.074700
     72 HBB         -3.2300     1.2140     0.8550 hc         1 ED1       0.050450
     73 HBBA        -1.8450     2.0540     1.5520 hc         1 ED1       0.050450
     74 HBD         -3.9860     2.8490     2.5310 h1         1 ED1       0.063700
     75 HBDA        -3.1390     4.1430     1.7020 h1         1 ED1       0.063700
     76 HAB         -7.7590     0.4360     0.9860 hc         1 ED1       0.048033
     77 HABA        -9.0840     0.3890    -0.1720 hc         1 ED1       0.048033
     78 HABB        -7.4230     0.4070    -0.7530 hc         1 ED1       0.048033
     79 HAD         -8.9660     3.9960     1.0630 hc         1 ED1       0.048033
     80 HADA       -10.0400     2.6080     0.9390 hc         1 ED1       0.048033
     81 HADB        -8.6830     2.5590     2.0580 hc         1 ED1       0.048033
     82 HAC         -8.1370     2.3450    -2.2210 hc         1 ED1       0.048033
     83 HACA        -9.7460     2.3940    -1.5020 hc         1 ED1       0.048033
     84 HACB        -8.7400     3.8400    -1.4880 hc         1 ED1       0.048033
     85 HBE         -5.3170     4.1900    -1.1930 h1         1 ED1       0.063700
     86 HBEA        -3.9080     4.9050    -0.4390 h1         1 ED1       0.063700
     87 HBC         -3.2120     3.4290    -2.2830 hc         1 ED1       0.050450
     88 HBCA        -4.0840     2.0760    -1.5770 hc         1 ED1       0.050450
     89 HAT          0.4670     0.3440    -2.8900 ha         1 ED1       0.103000
     90 HAM          1.7500    -1.0870    -4.3940 ha         1 ED1       0.110000
     91 HAL          4.1970    -1.3670    -4.0420 ha         1 ED1       0.123000
     92 HAS          5.3240    -0.1170    -2.2560 ha         1 ED1       0.137000
     93 HAY          5.2040    -0.1770     0.3410 ha         1 ED1       0.113000
     94 HAP          3.6900     3.5200    -1.2000 ha         1 ED1       0.107000
     95 HAN          5.1310     4.7500     0.3700 ha         1 ED1       0.103000
     96 HAO          6.6190     3.5340     1.9140 ha         1 ED1       0.115000
     97 HBA          7.1840     1.4010     3.0180 hc         1 ED1       0.053200
     98 HBAA         6.5410    -0.1140     2.4150 hc         1 ED1       0.053200
     99 HAZ          8.0830     0.0370     0.4330 hc         1 ED1       0.019200
    100 HAZA         8.7310     1.5260     1.0500 hc         1 ED1       0.019200
@<TRIPOS>BOND
     1     1     2 3   
     2     2     3 1   
     3     3     4 ar  
     4     3     6 ar  
     5     4     5 ar  
     6     4    54 1   
     7     5     8 ar  
     8     5    55 1   
     9     6     7 ar  
    10     6    56 1   
    11     7     8 ar  
    12     7    57 1   
    13     8     9 1   
    14     9    10 1   
    15     9    17 1   
    16    10    11 1   
    17    10    58 1   
    18    10    59 1   
    19    11    12 1   
    20    11    16 2   
    21    12    13 1   
    22    12    14 1   
    23    13    60 1   
    24    13    61 1   
    25    13    62 1   
    26    14    15 2   
    27    14    63 1   
    28    15    16 1   
    29    16    64 1   
    30    17    18 1   
    31    17    65 1   
    32    17    66 1   
    33    18    19 1   
    34    18    67 1   
    35    18    68 1   
    36    19    20 1   
    37    19    34 1   
    38    20    21 1   
    39    20    69 1   
    40    20    70 1   
    41    21    22 1   
    42    21    33 1   
    43    21    71 1   
    44    22    23 1   
    45    22    72 1   
    46    22    73 1   
    47    23    24 1   
    48    23    74 1   
    49    23    75 1   
    50    24    25 1   
    51    24    32 1   
    52    25    26 1   
    53    25    31 2   
    54    26    27 1   
    55    27    28 1   
    56    27    29 1   
    57    27    30 1   
    58    28    76 1   
    59    28    77 1   
    60    28    78 1   
    61    29    79 1   
    62    29    80 1   
    63    29    81 1   
    64    30    82 1   
    65    30    83 1   
    66    30    84 1   
    67    32    33 1   
    68    32    85 1   
    69    32    86 1   
    70    33    87 1   
    71    33    88 1   
    72    34    35 2   
    73    34    36 2   
    74    34    37 1   
    75    37    38 ar  
    76    37    42 ar  
    77    38    39 ar  
    78    38    89 1   
    79    39    40 ar  
    80    39    90 1   
    81    40    41 ar  
    82    40    91 1   
    83    41    42 ar  
    84    41    92 1   
    85    42    43 1   
    86    43    44 ar  
    87    43    45 ar  
    88    44    48 ar  
    89    44    93 1   
    90    45    46 ar  
    91    45    94 1   
    92    46    47 ar  
    93    46    95 1   
    94    47    48 ar  
    95    47    96 1   
    96    48    49 1   
    97    49    50 1   
    98    49    97 1   
    99    49    98 1   
   100    50    51 1   
   101    50    99 1   
   102    50   100 1   
   103    51    52 1   
   104    51    53 1   
@<TRIPOS>SUBSTRUCTURE
     1 ED1         1 TEMP              0 ****  ****    0 ROOT
