@<TRIPOS>MOLECULE
ED1
  100   104     1     0     0
SMALL
No Charge or Current Charge


@<TRIPOS>ATOM
      1 NAE         -5.0570    -4.8510     4.7090 n1         1 ED1      -0.480000
      2 CAK         -4.2810    -4.6400     3.8620 cg         1 ED1       0.343000
      3 CBN         -3.3300    -4.3710     2.8200 ca         1 ED1      -0.094000
      4 CAQ         -2.8530    -3.0630     2.6200 ca         1 ED1      -0.019000
      5 CAU         -1.9220    -2.8040     1.5990 ca         1 ED1      -0.211500
      6 CAR         -2.8700    -5.4130     1.9950 ca         1 ED1      -0.019000
      7 CAV         -1.9370    -5.1450     0.9780 ca         1 ED1      -0.211500
      8 CBQ         -1.4580    -3.8400     0.7710 ca         1 ED1       0.375000
      9 NBW         -0.5290    -3.5730    -0.2540 nh         1 ED1      -0.821400
     10 CBH          0.7320    -4.3470    -0.3430 c3         1 ED1       0.298100
     11 CBR          1.2080    -4.6240    -1.7450 cc         1 ED1      -0.246300
     12 NBY          0.5330    -5.3480    -2.7100 na         1 ED1      -0.155500
     13 CAA         -0.7830    -5.9910    -2.5740 c3         1 ED1       0.057900
     14 CAX          1.3250    -5.3640    -3.8390 cc         1 ED1       0.392400
     15 NBJ          2.4590    -4.7100    -3.6310 nd         1 ED1      -0.667000
     16 CAW          2.3890    -4.2480    -2.3320 cd         1 ED1       0.262900
     17 CBF         -0.7410    -2.4380    -1.1950 c3         1 ED1       0.187800
     18 CBG          0.1690    -1.1990    -0.9630 c3         1 ED1       0.193800
     19 NBX          0.0290    -0.0790    -1.9430 n3         1 ED1      -0.798500
     20 CBI         -1.3440     0.3640    -2.3120 c3         1 ED1       0.244800
     21 CBU         -2.1540     1.2920    -1.3390 c6         1 ED1      -0.083700
     22 CBB         -2.4710     0.6670     0.0390 c6         1 ED1      -0.102400
     23 CBD         -3.2960     1.6130     0.9410 c6         1 ED1       0.100000
     24 NBV         -4.4950     2.2240     0.3010 n          1 ED1      -0.390800
     25 CBM         -5.4960     2.7860     1.1220 c          1 ED1       0.647100
     26 OBK         -6.4070     3.5110     0.3900 os         1 ED1      -0.477100
     27 CBZ         -7.5430     4.1800     0.9850 c3         1 ED1       0.224000
     28 CAB         -8.4760     3.1340     1.6510 c3         1 ED1      -0.107433
     29 CAD         -7.0510     5.2720     1.9700 c3         1 ED1      -0.107433
     30 CAC         -8.2620     4.8370    -0.2130 c3         1 ED1      -0.107433
     31 OAG         -5.5270     2.6270     2.3330 o          1 ED1      -0.549000
     32 CBE         -4.3380     2.6420    -1.1260 c6         1 ED1       0.100000
     33 CBC         -3.4990     1.6790    -1.9960 c6         1 ED1      -0.102400
     34 SCA          1.1700     1.1710    -1.7320 sy         1 ED1       1.183600
     35 OAI          0.9240     2.1260    -2.8190 o          1 ED1      -0.533000
     36 OAH          1.0930     1.5830    -0.3260 o          1 ED1      -0.533000
     37 CBT          2.7440     0.3590    -2.1160 ca         1 ED1      -0.271500
     38 CAT          2.8040    -0.6960    -3.0500 ca         1 ED1      -0.052000
     39 CAM          4.0270    -1.3340    -3.3070 ca         1 ED1      -0.136000
     40 CAL          5.1870    -0.9220    -2.6360 ca         1 ED1      -0.049000
     41 CAS          5.1300     0.1470    -1.7270 ca         1 ED1      -0.123000
     42 CBS          3.9180     0.8280    -1.4540 cp         1 ED1       0.094000
     43 CBP          3.9770     1.9980    -0.5260 cp         1 ED1      -0.080000
     44 CAY          4.4100     1.8260     0.8110 ca         1 ED1      -0.086000
     45 CAP          3.6760     3.3090    -0.9690 ca         1 ED1      -0.114000
     46 CAN          3.7760     4.4040    -0.0950 ca         1 ED1      -0.108000
     47 CAO          4.1950     4.2100     1.2310 ca         1 ED1      -0.099000
     48 CBO          4.5180     2.9190     1.6910 ca         1 ED1      -0.042300
     49 CBA          4.9950     2.7050     3.1220 c3         1 ED1      -0.024100
     50 CAZ          6.5360     2.6100     3.2190 c3         1 ED1      -0.204400
     51 CBL          6.9620     2.4170     4.6830 c          1 ED1       0.718000
     52 OAF          7.0380     1.2780     5.1170 o          1 ED1      -0.738500
     53 OAJ          7.1550     3.4140     5.3630 o          1 ED1      -0.738500
     54 HAQ         -3.1970    -2.2470     3.2540 ha         1 ED1       0.120000
     55 HAU         -1.5500    -1.7950     1.4660 ha         1 ED1       0.117500
     56 HAR         -3.2320    -6.4300     2.1390 ha         1 ED1       0.120000
     57 HAV         -1.5960    -5.9540     0.3420 ha         1 ED1       0.117500
     58 HBH          1.5230    -3.8050     0.1940 h1         1 ED1       0.068200
     59 HBHA         0.6230    -5.3130     0.1680 h1         1 ED1       0.068200
     60 HAA         -1.5330    -5.2430    -2.2880 h1         1 ED1       0.053033
     61 HAAA        -1.0780    -6.4480    -3.5260 h1         1 ED1       0.053033
     62 HAAB        -0.7330    -6.7680    -1.8020 h1         1 ED1       0.053033
     63 HAX          1.0270    -5.8650    -4.7530 h5         1 ED1       0.050100
     64 HAW          3.1940    -3.6740    -1.8880 h4         1 ED1       0.051100
     65 HBF         -0.6020    -2.7770    -2.2300 h1         1 ED1       0.065200
     66 HBFA        -1.7880    -2.1170    -1.1230 h1         1 ED1       0.065200
     67 HBG          0.0190    -0.8470     0.0620 h1         1 ED1       0.070700
     68 HBGA         1.2020    -1.5690    -0.9910 h1         1 ED1       0.070700
     69 HBI         -1.2790     0.9010    -3.2680 h1         1 ED1       0.047700
     70 HBIA        -1.9700    -0.5100    -2.5330 h1         1 ED1       0.047700
     71 HBU         -1.5640     2.2070    -1.1920 hc         1 ED1       0.074700
     72 HBB         -3.0160    -0.2780    -0.0920 hc         1 ED1       0.050450
     73 HBBA        -1.5460     0.4360     0.5750 hc         1 ED1       0.050450
     74 HBD         -3.6010     1.0540     1.8370 h1         1 ED1       0.063700
     75 HBDA        -2.6420     2.4290     1.2820 h1         1 ED1       0.063700
     76 HAB         -8.0560     2.7460     2.5850 hc         1 ED1       0.048033
     77 HABA        -9.4440     3.5880     1.8980 hc         1 ED1       0.048033
     78 HABB        -8.6630     2.2900     0.9750 hc         1 ED1       0.048033
     79 HAD         -6.2720     5.8930     1.5080 hc         1 ED1       0.048033
     80 HADA        -7.8810     5.9290     2.2560 hc         1 ED1       0.048033
     81 HADB        -6.6480     4.8410     2.8920 hc         1 ED1       0.048033
     82 HAC         -8.5680     4.0800    -0.9460 hc         1 ED1       0.048033
     83 HACA        -9.1600     5.3720     0.1190 hc         1 ED1       0.048033
     84 HACB        -7.6030     5.5550    -0.7170 hc         1 ED1       0.048033
     85 HBE         -5.3240     2.7450    -1.6020 h1         1 ED1       0.063700
     86 HBEA        -3.8690     3.6370    -1.1400 h1         1 ED1       0.063700
     87 HBC         -3.3250     2.1440    -2.9770 hc         1 ED1       0.050450
     88 HBCA        -4.0890     0.7720    -2.1880 hc         1 ED1       0.050450
     89 HAT          1.9080    -1.0300    -3.5700 ha         1 ED1       0.103000
     90 HAM          4.0720    -2.1530    -4.0210 ha         1 ED1       0.110000
     91 HAL          6.1340    -1.4210    -2.8310 ha         1 ED1       0.123000
     92 HAS          6.0440     0.4720    -1.2360 ha         1 ED1       0.137000
     93 HAY          4.6660     0.8290     1.1620 ha         1 ED1       0.113000
     94 HAP          3.3700     3.4750    -1.9990 ha         1 ED1       0.107000
     95 HAN          3.5370     5.4050    -0.4480 ha         1 ED1       0.103000
     96 HAO          4.2780     5.0640     1.9000 ha         1 ED1       0.115000
     97 HBA          4.6420     3.5220     3.7640 hc         1 ED1       0.053200
     98 HBAA         4.5500     1.7870     3.5290 hc         1 ED1       0.053200
     99 HAZ          6.8220     1.7380     2.6170 hc         1 ED1       0.019200
    100 HAZA         6.9190     3.5600     2.8270 hc         1 ED1       0.019200
@<TRIPOS>BOND
     1     1     2 3   
     2     2     3 1   
     3     3     4 ar  
     4     3     6 ar  
     5     4     5 ar  
     6     4    54 1   
     7     5     8 ar  
     8     5    55 1   
     9     6     7 ar  
    10     6    56 1   
    11     7     8 ar  
    12     7    57 1   
    13     8     9 1   
    14     9    10 1   
    15     9    17 1   
    16    10    11 1   
    17    10    58 1   
    18    10    59 1   
    19    11    12 1   
    20    11    16 2   
    21    12    13 1   
    22    12    14 1   
    23    13    60 1   
    24    13    61 1   
    25    13    62 1   
    26    14    15 2   
    27    14    63 1   
    28    15    16 1   
    29    16    64 1   
    30    17    18 1   
    31    17    65 1   
    32    17    66 1   
    33    18    19 1   
    34    18    67 1   
    35    18    68 1   
    36    19    20 1   
    37    19    34 1   
    38    20    21 1   
    39    20    69 1   
    40    20    70 1   
    41    21    22 1   
    42    21    33 1   
    43    21    71 1   
    44    22    23 1   
    45    22    72 1   
    46    22    73 1   
    47    23    24 1   
    48    23    74 1   
    49    23    75 1   
    50    24    25 1   
    51    24    32 1   
    52    25    26 1   
    53    25    31 2   
    54    26    27 1   
    55    27    28 1   
    56    27    29 1   
    57    27    30 1   
    58    28    76 1   
    59    28    77 1   
    60    28    78 1   
    61    29    79 1   
    62    29    80 1   
    63    29    81 1   
    64    30    82 1   
    65    30    83 1   
    66    30    84 1   
    67    32    33 1   
    68    32    85 1   
    69    32    86 1   
    70    33    87 1   
    71    33    88 1   
    72    34    35 2   
    73    34    36 2   
    74    34    37 1   
    75    37    38 ar  
    76    37    42 ar  
    77    38    39 ar  
    78    38    89 1   
    79    39    40 ar  
    80    39    90 1   
    81    40    41 ar  
    82    40    91 1   
    83    41    42 ar  
    84    41    92 1   
    85    42    43 1   
    86    43    44 ar  
    87    43    45 ar  
    88    44    48 ar  
    89    44    93 1   
    90    45    46 ar  
    91    45    94 1   
    92    46    47 ar  
    93    46    95 1   
    94    47    48 ar  
    95    47    96 1   
    96    48    49 1   
    97    49    50 1   
    98    49    97 1   
    99    49    98 1   
   100    50    51 1   
   101    50    99 1   
   102    50   100 1   
   103    51    52 1   
   104    51    53 1   
@<TRIPOS>SUBSTRUCTURE
     1 ED1         1 TEMP              0 ****  ****    0 ROOT
