@<TRIPOS>MOLECULE
ED2
   62    65     1     0     0
SMALL
abcg2


@<TRIPOS>ATOM
      1 CAB          4.1770     1.0380     2.5390 c3         1 ED2       0.055900
      2 NBH          2.9410     1.2740     3.2480 na         1 ED2      -0.152500
      3 CAQ          2.7590     1.1540     4.5790 cc         1 ED2       0.396400
      4 NAX          1.5320     1.4350     4.9390 nd         1 ED2      -0.669000
      5 CAP          0.8880     1.7500     3.7800 cd         1 ED2       0.263900
      6 CBC          1.7400     1.6630     2.7140 cc         1 ED2      -0.251300
      7 CAW          1.4870     1.9060     1.2670 c3         1 ED2       0.308100
      8 NBE          1.5500     0.6950     0.4580 nh         1 ED2      -0.824400
      9 CBB          2.4030     0.5300    -0.5930 ca         1 ED2       0.371000
     10 CAN          2.3020    -0.6010    -1.4350 ca         1 ED2      -0.212000
     11 CAL          3.1750    -0.8030    -2.4790 ca         1 ED2      -0.020500
     12 CAZ          4.1940     0.1130    -2.7480 ca         1 ED2      -0.092000
     13 CAF          5.0930    -0.0960    -3.8270 cg         1 ED2       0.338000
     14 NAC          5.8230    -0.2670    -4.7050 n1         1 ED2      -0.473000
     15 CAM          4.3060     1.2410    -1.9330 ca         1 ED2      -0.020500
     16 CAO          3.4370     1.4470    -0.8860 ca         1 ED2      -0.212000
     17 CAT          0.4850    -0.2480     0.7230 c3         1 ED2       0.201800
     18 CAU         -0.7620     0.0360    -0.1130 c3         1 ED2       0.183800
     19 NBF         -1.8100    -0.9510     0.1450 n3         1 ED2      -0.739500
     20 SBI         -2.9280    -0.5560     1.2910 sy         1 ED2       1.141200
     21 OAD         -3.7350    -1.7400     1.5290 o          1 ED2      -0.534000
     22 OAE         -2.2110     0.0690     2.3920 o          1 ED2      -0.534000
     23 CBD         -3.9390     0.6840     0.5990 cc         1 ED2      -0.015100
     24 CAS         -3.9380     2.0150     0.9190 cd         1 ED2      -0.102000
     25 NBG         -4.8510     2.5670     0.0810 na         1 ED2      -0.152500
     26 CAA         -5.2160     3.9680     0.0150 c3         1 ED2       0.049900
     27 CAR         -5.3420     1.5730    -0.6950 cd         1 ED2       0.390400
     28 NAY         -4.8100     0.4160    -0.4090 nc         1 ED2      -0.600000
     29 CAV         -2.2410    -1.7570    -0.9990 c3         1 ED2       0.256100
     30 CBA         -1.0980    -2.5870    -1.5170 ca         1 ED2      -0.098300
     31 CAJ         -0.4420    -3.4900    -0.6820 ca         1 ED2      -0.097000
     32 CAH          0.6150    -4.2500    -1.1610 ca         1 ED2      -0.115500
     33 CAG          1.0270    -4.1200    -2.4830 ca         1 ED2      -0.107000
     34 CAI          0.3750    -3.2270    -3.3210 ca         1 ED2      -0.115500
     35 CAK         -0.6790    -2.4620    -2.8370 ca         1 ED2      -0.097000
     36 HAB          4.0560     0.2520     1.7980 h1         1 ED2       0.055367
     37 HABA         4.5230     1.9450     2.0470 h1         1 ED2       0.055367
     38 HABB         4.9360     0.7250     3.2520 h1         1 ED2       0.055367
     39 HAQ          3.5620     0.8560     5.2380 h5         1 ED2       0.053100
     40 HAP         -0.1590     2.0180     3.7550 h4         1 ED2       0.047100
     41 HAW          0.4880     2.3430     1.1830 h1         1 ED2       0.056200
     42 HAWA         2.1600     2.6630     0.8710 h1         1 ED2       0.056200
     43 HAN          1.5300    -1.3410    -1.2890 ha         1 ED2       0.122000
     44 HAL          3.0590    -1.6830    -3.0970 ha         1 ED2       0.120500
     45 HAM          5.0860     1.9680    -2.1160 ha         1 ED2       0.120500
     46 HAO          3.5860     2.3350    -0.2910 ha         1 ED2       0.122000
     47 HAT          0.8230    -1.2720     0.5580 h1         1 ED2       0.081700
     48 HATA         0.2360    -0.1860     1.7820 h1         1 ED2       0.081700
     49 HAU         -1.1190     1.0560     0.0680 h1         1 ED2       0.050200
     50 HAUA        -0.5230    -0.0040    -1.1770 h1         1 ED2       0.050200
     51 HAS         -3.3920     2.5880     1.6490 h4         1 ED2       0.180000
     52 HAA         -4.3770     4.5620    -0.3390 h1         1 ED2       0.061700
     53 HAAA        -6.0470     4.0820    -0.6760 h1         1 ED2       0.061700
     54 HAAB        -5.5210     4.3230     0.9960 h1         1 ED2       0.061700
     55 HAR         -6.0910     1.7540    -1.4510 h5         1 ED2       0.062100
     56 HAV         -3.0510    -2.4120    -0.6830 h1         1 ED2       0.070700
     57 HAVA        -2.6330    -1.1220    -1.8000 h1         1 ED2       0.070700
     58 HAJ         -0.7560    -3.5960     0.3490 ha         1 ED2       0.119000
     59 HAH          1.1180    -4.9460    -0.5030 ha         1 ED2       0.116000
     60 HAG          1.8540    -4.7110    -2.8560 ha         1 ED2       0.115000
     61 HAI          0.6910    -3.1170    -4.3510 ha         1 ED2       0.116000
     62 HAK         -1.1770    -1.7560    -3.4920 ha         1 ED2       0.119000
@<TRIPOS>BOND
     1     1     2 1   
     2     1    36 1   
     3     1    37 1   
     4     1    38 1   
     5     2     3 1   
     6     2     6 1   
     7     3     4 2   
     8     3    39 1   
     9     4     5 1   
    10     5     6 2   
    11     5    40 1   
    12     6     7 1   
    13     7     8 1   
    14     7    41 1   
    15     7    42 1   
    16     8     9 1   
    17     8    17 1   
    18     9    10 ar  
    19     9    16 ar  
    20    10    11 ar  
    21    10    43 1   
    22    11    12 ar  
    23    11    44 1   
    24    12    13 1   
    25    12    15 ar  
    26    13    14 3   
    27    15    16 ar  
    28    15    45 1   
    29    16    46 1   
    30    17    18 1   
    31    17    47 1   
    32    17    48 1   
    33    18    19 1   
    34    18    49 1   
    35    18    50 1   
    36    19    20 1   
    37    19    29 1   
    38    20    21 2   
    39    20    22 2   
    40    20    23 1   
    41    23    24 2   
    42    23    28 1   
    43    24    25 1   
    44    24    51 1   
    45    25    26 1   
    46    25    27 1   
    47    26    52 1   
    48    26    53 1   
    49    26    54 1   
    50    27    28 2   
    51    27    55 1   
    52    29    30 1   
    53    29    56 1   
    54    29    57 1   
    55    30    31 ar  
    56    30    35 ar  
    57    31    32 ar  
    58    31    58 1   
    59    32    33 ar  
    60    32    59 1   
    61    33    34 ar  
    62    33    60 1   
    63    34    35 ar  
    64    34    61 1   
    65    35    62 1   
@<TRIPOS>SUBSTRUCTURE
     1 ED2         1 TEMP              0 ****  ****    0 ROOT
