@<TRIPOS>MOLECULE
ED2
   62    65     1     0     0
SMALL
No Charge or Current Charge


@<TRIPOS>ATOM
      1 CAB          1.9770     2.7460     2.4730 c3         1 ED2       0.055900
      2 NBH          0.8270     3.1530     1.6500 na         1 ED2      -0.152500
      3 CAQ         -0.1740     4.0200     2.0360 cc         1 ED2       0.396400
      4 NAX         -1.0480     4.2010     1.0570 nd         1 ED2      -0.669000
      5 CAP         -0.6040     3.4160     0.0130 cd         1 ED2       0.263900
      6 CBC          0.5530     2.7640     0.3520 cc         1 ED2      -0.251300
      7 CAW          1.4000     1.8650    -0.5110 c3         1 ED2       0.308100
      8 NBE          1.6740     0.5250     0.0540 nh         1 ED2      -0.824400
      9 CBB          2.9080    -0.1110    -0.1990 ca         1 ED2       0.371000
     10 CAN          2.9530    -1.4130    -0.7280 ca         1 ED2      -0.212000
     11 CAL          4.1840    -2.0430    -0.9810 ca         1 ED2      -0.020500
     12 CAZ          5.3880    -1.3710    -0.7010 ca         1 ED2      -0.092000
     13 CAF          6.6480    -2.0110    -0.9560 cg         1 ED2       0.338000
     14 NAC          7.6770    -2.5230    -1.1630 n1         1 ED2      -0.473000
     15 CAM          5.3510    -0.0690    -0.1690 ca         1 ED2      -0.020500
     16 CAO          4.1150     0.5530     0.0780 ca         1 ED2      -0.212000
     17 CAT          0.5260    -0.2470     0.6090 c3         1 ED2       0.201800
     18 CAU         -0.5770    -0.6120    -0.4250 c3         1 ED2       0.183800
     19 NBF         -1.4580    -1.7620    -0.0680 n3         1 ED2      -0.739500
     20 SBI         -2.2880    -1.5940     1.4270 sy         1 ED2       1.141200
     21 OAD         -3.5210    -2.3820     1.2860 o          1 ED2      -0.534000
     22 OAE         -1.3250    -1.9530     2.4750 o          1 ED2      -0.534000
     23 CBD         -2.8300     0.1440     1.6850 cc         1 ED2      -0.015100
     24 CAS         -2.7020     0.8060     2.8800 cd         1 ED2      -0.102000
     25 NBG         -3.2070     2.0730     2.6540 na         1 ED2      -0.152500
     26 CAA         -3.3030     3.1590     3.6380 c3         1 ED2       0.049900
     27 CAR         -3.6070     2.1340     1.3260 cd         1 ED2       0.390400
     28 NAY         -3.3860     0.9710     0.7260 nc         1 ED2      -0.600000
     29 CAV         -2.3180    -2.2020    -1.1950 c3         1 ED2       0.256100
     30 CBA         -1.5370    -2.5150    -2.4720 ca         1 ED2      -0.098300
     31 CAJ         -0.5750    -3.5440    -2.4770 ca         1 ED2      -0.097000
     32 CAH          0.1590    -3.8250    -3.6430 ca         1 ED2      -0.115500
     33 CAG         -0.0660    -3.0790    -4.8120 ca         1 ED2      -0.107000
     34 CAI         -1.0250    -2.0510    -4.8140 ca         1 ED2      -0.115500
     35 CAK         -1.7580    -1.7690    -3.6480 ca         1 ED2      -0.097000
     36 HAB          1.9830     1.6560     2.5880 h1         1 ED2       0.055367
     37 HABA         2.9060     3.0660     1.9860 h1         1 ED2       0.055367
     38 HABB         1.9120     3.2110     3.4640 h1         1 ED2       0.055367
     39 HAQ         -0.2010     4.4800     3.0170 h5         1 ED2       0.053100
     40 HAP         -1.1340     3.3760    -0.9320 h4         1 ED2       0.047100
     41 HAW          0.9030     1.7480    -1.4840 h1         1 ED2       0.056200
     42 HAWA         2.3420     2.3930    -0.7110 h1         1 ED2       0.056200
     43 HAN          2.0340    -1.9420    -0.9600 ha         1 ED2       0.122000
     44 HAL          4.1990    -3.0500    -1.3940 ha         1 ED2       0.120500
     45 HAM          6.2760     0.4600     0.0540 ha         1 ED2       0.120500
     46 HAO          4.0990     1.5540     0.4980 ha         1 ED2       0.122000
     47 HAT          0.9010    -1.1830     1.0450 h1         1 ED2       0.081700
     48 HATA         0.0700     0.3090     1.4390 h1         1 ED2       0.081700
     49 HAU         -1.1730     0.2860    -0.6310 h1         1 ED2       0.050200
     50 HAUA        -0.0460    -0.8400    -1.3560 h1         1 ED2       0.050200
     51 HAS         -2.3050     0.4760     3.8350 h4         1 ED2       0.180000
     52 HAA         -2.4190     3.1490     4.2880 h1         1 ED2       0.061700
     53 HAAA        -3.3580     4.1270     3.1230 h1         1 ED2       0.061700
     54 HAAB        -4.2040     3.0230     4.2490 h1         1 ED2       0.061700
     55 HAR         -4.0350     3.0270     0.8860 h5         1 ED2       0.062100
     56 HAV         -2.8590    -3.1220    -0.9330 h1         1 ED2       0.070700
     57 HAVA        -3.0770    -1.4380    -1.4130 h1         1 ED2       0.070700
     58 HAJ         -0.3920    -4.1200    -1.5720 ha         1 ED2       0.119000
     59 HAH          0.9020    -4.6190    -3.6390 ha         1 ED2       0.116000
     60 HAG          0.5020    -3.2960    -5.7140 ha         1 ED2       0.115000
     61 HAI         -1.1980    -1.4720    -5.7180 ha         1 ED2       0.116000
     62 HAK         -2.4940    -0.9670    -3.6580 ha         1 ED2       0.119000
@<TRIPOS>BOND
     1     1     2 1   
     2     1    36 1   
     3     1    37 1   
     4     1    38 1   
     5     2     3 1   
     6     2     6 1   
     7     3     4 2   
     8     3    39 1   
     9     4     5 1   
    10     5     6 2   
    11     5    40 1   
    12     6     7 1   
    13     7     8 1   
    14     7    41 1   
    15     7    42 1   
    16     8     9 1   
    17     8    17 1   
    18     9    10 ar  
    19     9    16 ar  
    20    10    11 ar  
    21    10    43 1   
    22    11    12 ar  
    23    11    44 1   
    24    12    13 1   
    25    12    15 ar  
    26    13    14 3   
    27    15    16 ar  
    28    15    45 1   
    29    16    46 1   
    30    17    18 1   
    31    17    47 1   
    32    17    48 1   
    33    18    19 1   
    34    18    49 1   
    35    18    50 1   
    36    19    20 1   
    37    19    29 1   
    38    20    21 2   
    39    20    22 2   
    40    20    23 1   
    41    23    24 2   
    42    23    28 1   
    43    24    25 1   
    44    24    51 1   
    45    25    26 1   
    46    25    27 1   
    47    26    52 1   
    48    26    53 1   
    49    26    54 1   
    50    27    28 2   
    51    27    55 1   
    52    29    30 1   
    53    29    56 1   
    54    29    57 1   
    55    30    31 ar  
    56    30    35 ar  
    57    31    32 ar  
    58    31    58 1   
    59    32    33 ar  
    60    32    59 1   
    61    33    34 ar  
    62    33    60 1   
    63    34    35 ar  
    64    34    61 1   
    65    35    62 1   
@<TRIPOS>SUBSTRUCTURE
     1 ED2         1 TEMP              0 ****  ****    0 ROOT
