@<TRIPOS>MOLECULE
ED3
   50    53     1     0     0
SMALL
No Charge or Current Charge


@<TRIPOS>ATOM
      1 C1           2.1150    -2.0330    83.9210 ca         1 ED3      -0.192600
      2 C2           2.1460    -0.9520    84.8100 ca         1 ED3      -0.015000
      3 C3           1.0230    -0.6340    85.5730 ca         1 ED3      -0.187000
      4 C4          -0.1430    -1.4230    85.5080 ca         1 ED3       0.138600
      5 C5          -0.2270    -2.4610    84.5560 ca         1 ED3      -0.217600
      6 C6           0.9060    -2.7560    83.7270 ca         1 ED3       0.062700
      7 C8          -2.5640    -1.6430    86.0430 c          1 ED3       0.631000
      8 C10         -1.5360    -3.2210    84.4640 c          1 ED3       0.603600
      9 C12          0.8250    -3.7760    82.5810 c3         1 ED3      -0.060800
     10 C13          3.3880    -2.3360    83.1790 c          1 ED3       0.655300
     11 C14          3.8960    -3.7170    83.1880 cc         1 ED3      -0.417600
     12 C24          4.5350    -4.3050    82.1520 cd         1 ED3       0.163100
     13 C27          3.7000    -4.7350    84.1450 cc         1 ED3       0.352300
     14 C31          3.0490    -4.5420    85.4870 c3         1 ED3      -0.131400
     15 N7          -1.3060    -1.0560    86.2650 n          1 ED3      -0.303000
     16 N9          -2.6430    -2.7210    85.1590 n          1 ED3      -0.302600
     17 N25          4.7240    -5.6380    82.5210 na         1 ED3       0.107800
     18 N26          4.1970    -5.9030    83.7800 nd         1 ED3      -0.525800
     19 O11         -1.6470    -4.2640    83.8340 o          1 ED3      -0.504000
     20 O15          3.8940    -1.4980    82.4420 o          1 ED3      -0.591100
     21 O17         -3.5660    -1.2400    86.6220 o          1 ED3      -0.533000
     22 O30          4.9250    -3.7570    80.9860 oh         1 ED3      -0.516100
     23 C16         -3.9090    -3.3850    85.0010 ca         1 ED3       0.049600
     24 C19         -4.3610    -4.3250    85.9560 ca         1 ED3       0.137000
     25 C20         -5.6010    -4.9630    85.7830 ca         1 ED3      -0.100000
     26 C21         -6.3950    -4.6710    84.6600 ca         1 ED3      -0.092000
     27 C22         -5.9470    -3.7400    83.7070 ca         1 ED3      -0.104000
     28 C23         -4.7070    -3.1000    83.8770 ca         1 ED3      -0.074000
     29 Cl1         -3.3780    -4.7280    87.3660 cl         1 ED3      -0.188000
     30 H1           3.0520    -0.3580    84.9180 ha         1 ED3       0.126000
     31 H2           1.0920     0.2250    86.2330 ha         1 ED3       0.128000
     32 H3           0.8600    -4.8050    82.9580 hc         1 ED3       0.062033
     33 H4          -0.0960    -3.6510    82.0010 hc         1 ED3       0.062033
     34 H5           1.6250    -3.6650    81.8440 hc         1 ED3       0.062033
     35 H8          -2.0060    -0.1750    88.1010 h1         1 ED3       0.058367
     36 H9          -0.2500    -0.3020    87.9550 h1         1 ED3       0.058367
     37 H10         -1.1350     0.9300    87.0040 h1         1 ED3       0.058367
     38 H11          5.4090    -7.6250    82.2940 h1         1 ED3       0.061367
     39 H12          4.8260    -6.8390    80.7960 h1         1 ED3       0.061367
     40 H13          6.4060    -6.3750    81.4930 h1         1 ED3       0.061367
     41 H14          3.4130    -5.2860    86.2060 hc         1 ED3       0.056033
     42 H15          3.2740    -3.5530    85.9020 hc         1 ED3       0.056033
     43 H16          1.9620    -4.6550    85.4190 hc         1 ED3       0.056033
     44 H18         -5.9440    -5.6860    86.5190 ha         1 ED3       0.131000
     45 H19         -7.3550    -5.1670    84.5280 ha         1 ED3       0.119000
     46 H20         -6.5600    -3.5150    82.8370 ha         1 ED3       0.121000
     47 H21         -4.3650    -2.3810    83.1360 ha         1 ED3       0.126000
     48 H6           4.7270    -2.7950    81.0690 ho         1 ED3       0.533000
     49 C18         -1.1710    -0.0940    87.3950 c3         1 ED3       0.082300
     50 C28          5.3820    -6.6860    81.7280 c3         1 ED3       0.074900
@<TRIPOS>BOND
     1     1     2 ar  
     2     1     6 ar  
     3     1    10 1   
     4     2     3 ar  
     5     2    30 1   
     6     3     4 ar  
     7     3    31 1   
     8     4     5 ar  
     9     4    15 1   
    10     5     6 ar  
    11     5     8 1   
    12     6     9 1   
    13     7    15 1   
    14     7    16 1   
    15     7    21 2   
    16     8    16 1   
    17     8    19 2   
    18     9    32 1   
    19     9    33 1   
    20     9    34 1   
    21    10    11 1   
    22    10    20 2   
    23    11    12 2   
    24    11    13 1   
    25    12    17 1   
    26    12    22 1   
    27    13    14 1   
    28    13    18 2   
    29    14    41 1   
    30    14    42 1   
    31    14    43 1   
    32    15    49 1   
    33    16    23 1   
    34    17    18 1   
    35    17    50 1   
    36    22    48 1   
    37    23    24 ar  
    38    23    28 ar  
    39    24    25 ar  
    40    24    29 1   
    41    25    26 ar  
    42    25    44 1   
    43    26    27 ar  
    44    26    45 1   
    45    27    28 ar  
    46    27    46 1   
    47    28    47 1   
    48    35    49 1   
    49    36    49 1   
    50    37    49 1   
    51    38    50 1   
    52    39    50 1   
    53    40    50 1   
@<TRIPOS>SUBSTRUCTURE
     1 ED3         1 TEMP              0 ****  ****    0 ROOT
