@<TRIPOS>MOLECULE
ED3
   50    53     1     0     0
SMALL
abcg2


@<TRIPOS>ATOM
      1 C1           1.8270    -2.3250    83.6250 ca         1 ED3      -0.192600
      2 C2           2.0350    -1.3470    84.5900 ca         1 ED3      -0.015000
      3 C3           1.0310    -0.9660    85.4470 ca         1 ED3      -0.187000
      4 C4          -0.2310    -1.5540    85.3380 ca         1 ED3       0.138600
      5 C5          -0.4580    -2.5230    84.3470 ca         1 ED3      -0.217600
      6 C6           0.5800    -2.9210    83.4770 ca         1 ED3       0.062700
      7 C8          -2.5100    -1.6860    86.1530 c          1 ED3       0.631000
      8 C10         -1.7990    -3.1070    84.2430 c          1 ED3       0.603600
      9 C12          0.3900    -3.9510    82.3980 c3         1 ED3      -0.060800
     10 C13          2.9940    -2.6800    82.7620 c          1 ED3       0.655300
     11 C14          3.7490    -3.8620    83.0570 cc         1 ED3      -0.417600
     12 C24          4.8550    -4.2250    82.2880 cd         1 ED3       0.163100
     13 C27          3.6810    -4.8770    84.0530 cc         1 ED3       0.352300
     14 C31          2.7140    -5.0250    85.1740 c3         1 ED3      -0.131400
     15 N7          -1.2380    -1.1710    86.2070 n          1 ED3      -0.303000
     16 N9          -2.7340    -2.6110    85.1480 n          1 ED3      -0.302600
     17 N25          5.3560    -5.3400    82.8040 na         1 ED3       0.107800
     18 N26          4.6430    -5.7470    83.8910 nd         1 ED3      -0.525800
     19 O11         -2.1420    -3.9530    83.4520 o          1 ED3      -0.504000
     20 O15          3.3310    -1.9380    81.8420 o          1 ED3      -0.591100
     21 O17         -3.3920    -1.3640    86.9110 o          1 ED3      -0.533000
     22 O30          5.3780    -3.6370    81.2370 oh         1 ED3      -0.516100
     23 C16         -4.0390    -3.1750    85.0970 ca         1 ED3       0.049600
     24 C19         -4.3330    -4.3160    85.8290 ca         1 ED3       0.137000
     25 C20         -5.5990    -4.8770    85.7780 ca         1 ED3      -0.100000
     26 C21         -6.5730    -4.2890    84.9870 ca         1 ED3      -0.092000
     27 C22         -6.2860    -3.1490    84.2510 ca         1 ED3      -0.104000
     28 C23         -5.0170    -2.5960    84.3090 ca         1 ED3      -0.074000
     29 CL1         -3.1130    -5.0360    86.8080 cl         1 ED3      -0.188000
     30 H1           3.0070    -0.8800    84.6890 ha         1 ED3       0.126000
     31 H2           1.2430    -0.2100    86.1870 ha         1 ED3       0.128000
     32 H3           0.0620    -4.9080    82.7970 hc         1 ED3       0.062033
     33 H4          -0.3630    -3.6390    81.6770 hc         1 ED3       0.062033
     34 H5           1.3150    -4.1220    81.8510 hc         1 ED3       0.062033
     35 H8          -1.8560    -0.0350    87.8280 h1         1 ED3       0.058367
     36 H9          -0.1730    -0.5610    87.9120 h1         1 ED3       0.058367
     37 H10         -0.6460     0.7530    86.8140 h1         1 ED3       0.058367
     38 H11          6.6620    -6.9030    83.0330 h1         1 ED3       0.061367
     39 H12          6.2750    -6.5330    81.3460 h1         1 ED3       0.061367
     40 H13          7.3710    -5.4790    82.2550 h1         1 ED3       0.061367
     41 H14          2.9970    -5.8640    85.8060 hc         1 ED3       0.056033
     42 H15          2.6790    -4.1280    85.7910 hc         1 ED3       0.056033
     43 H16          1.7030    -5.2080    84.8090 hc         1 ED3       0.056033
     44 H18         -5.8180    -5.7660    86.3520 ha         1 ED3       0.131000
     45 H19         -7.5610    -4.7260    84.9480 ha         1 ED3       0.119000
     46 H20         -7.0450    -2.6910    83.6330 ha         1 ED3       0.121000
     47 H21         -4.7770    -1.7060    83.7430 ha         1 ED3       0.126000
     48 H6           4.8380    -2.8320    81.0880 ho         1 ED3       0.533000
     49 C18         -0.9570    -0.1980    87.2470 c3         1 ED3       0.082300
     50 C28          6.4800    -6.1010    82.3250 c3         1 ED3       0.074900
@<TRIPOS>BOND
     1     1     2 ar  
     2     1     6 ar  
     3     1    10 1   
     4     2     3 ar  
     5     2    30 1   
     6     3     4 ar  
     7     3    31 1   
     8     4     5 ar  
     9     4    15 1   
    10     5     6 ar  
    11     5     8 1   
    12     6     9 1   
    13     7    15 1   
    14     7    16 1   
    15     7    21 2   
    16     8    16 1   
    17     8    19 2   
    18     9    32 1   
    19     9    33 1   
    20     9    34 1   
    21    10    11 1   
    22    10    20 2   
    23    11    12 2   
    24    11    13 1   
    25    12    17 1   
    26    12    22 1   
    27    13    14 1   
    28    13    18 2   
    29    14    41 1   
    30    14    42 1   
    31    14    43 1   
    32    15    49 1   
    33    16    23 1   
    34    17    18 1   
    35    17    50 1   
    36    22    48 1   
    37    23    24 ar  
    38    23    28 ar  
    39    24    25 ar  
    40    24    29 1   
    41    25    26 ar  
    42    25    44 1   
    43    26    27 ar  
    44    26    45 1   
    45    27    28 ar  
    46    27    46 1   
    47    28    47 1   
    48    35    49 1   
    49    36    49 1   
    50    37    49 1   
    51    38    50 1   
    52    39    50 1   
    53    40    50 1   
@<TRIPOS>SUBSTRUCTURE
     1 ED3         1 TEMP              0 ****  ****    0 ROOT
