@<TRIPOS>MOLECULE
ED4
   82    85     1     0     0
SMALL
bcc


@<TRIPOS>ATOM
      1 NAF         -3.8780     5.5360    -0.4080 n1         1 ED4      -0.381800
      2 CAJ         -2.9050     4.9180    -0.4700 cg         1 ED4       0.248800
      3 CBE         -1.7160     4.1470    -0.5450 ca         1 ED4      -0.091000
      4 CAK         -1.6450     2.8880     0.0510 ca         1 ED4      -0.038000
      5 CAM         -0.5010     2.1300    -0.0310 ca         1 ED4      -0.230000
      6 CAL         -0.5910     4.6230    -1.2240 ca         1 ED4      -0.038000
      7 CAN          0.5580     3.8690    -1.3110 ca         1 ED4      -0.230000
      8 CBF          0.6450     2.5890    -0.7200 ca         1 ED4       0.233600
      9 NBK          1.7610     1.8100    -0.7910 nh         1 ED4      -0.689000
     10 CAY          3.0330     2.2580    -1.3400 c3         1 ED4       0.307100
     11 CBG          4.1400     2.1540    -0.3490 cc         1 ED4      -0.260900
     12 NBN          4.2060     2.8870     0.8080 na         1 ED4      -0.174900
     13 CAB          3.2520     3.8700     1.2660 c3         1 ED4       0.026600
     14 CAP          5.3250     2.5000     1.4540 cc         1 ED4       0.394400
     15 NBA          5.9820     1.5770     0.7980 nd         1 ED4      -0.683000
     16 CAO          5.2480     1.3520    -0.3280 cd         1 ED4       0.325200
     17 CAW          1.7220     0.4200    -0.3830 c3         1 ED4       0.183800
     18 CAX          0.9320    -0.4230    -1.3870 c3         1 ED4       0.193800
     19 NBL          0.7320    -1.8080    -0.9800 n3         1 ED4      -0.764500
     20 SBP          1.8200    -2.9640    -1.4040 sy         1 ED4       1.296800
     21 CBH          3.0870    -2.9580    -0.2020 cc         1 ED4       0.053200
     22 NBB          4.0200    -1.9730    -0.1600 nc         1 ED4      -0.610000
     23 CAQ          4.7530    -2.2570     0.8820 cd         1 ED4       0.397400
     24 NBM          4.3320    -3.3830     1.5070 na         1 ED4      -0.175900
     25 CAA          4.9250    -3.9860     2.6830 c3         1 ED4       0.020600
     26 CAR          3.2550    -3.8480     0.8240 cd         1 ED4      -0.135600
     27 OAI          1.1530    -4.2500    -1.2770 o          1 ED4      -0.608300
     28 OAH          2.4010    -2.5650    -2.6740 o          1 ED4      -0.608300
     29 CAZ         -0.1520    -2.0950     0.1500 c3         1 ED4       0.227800
     30 CBI         -1.5500    -2.5460    -0.2560 c6         1 ED4      -0.073700
     31 CAT         -2.3430    -2.9340     0.9940 c6         1 ED4      -0.103900
     32 CAV         -3.7870    -3.2810     0.6490 c6         1 ED4       0.097000
     33 CAS         -2.2930    -1.4800    -1.0620 c6         1 ED4      -0.103900
     34 CAU         -3.7420    -1.8790    -1.3130 c6         1 ED4       0.097000
     35 NBJ         -4.4150    -2.1780    -0.0590 n          1 ED4      -0.451800
     36 CBD         -5.1070    -1.2560     0.6610 c          1 ED4       0.761100
     37 OAG         -5.4870    -1.4410     1.8010 o          1 ED4      -0.599000
     38 OBC         -5.3350    -0.1510    -0.0440 os         1 ED4      -0.449900
     39 CBO         -6.0810     0.9760     0.4840 c3         1 ED4       0.197800
     40 CAE         -5.4110     1.5600     1.7230 c3         1 ED4      -0.108433
     41 CAD         -6.0250     1.9910    -0.6510 c3         1 ED4      -0.108433
     42 CAC         -7.5290     0.5900     0.7600 c3         1 ED4      -0.108433
     43 HAK         -2.4930     2.4950     0.5970 ha         1 ED4       0.139500
     44 HAM         -0.5010     1.1720     0.4660 ha         1 ED4       0.136000
     45 HAL         -0.6180     5.5940    -1.7010 ha         1 ED4       0.139500
     46 HAN          1.3800     4.2880    -1.8690 ha         1 ED4       0.136000
     47 HAY          3.3010     1.6540    -2.2120 h1         1 ED4       0.066700
     48 HAYA         2.9490     3.2800    -1.7040 h1         1 ED4       0.066700
     49 HAB          2.3070     3.4050     1.5390 h1         1 ED4       0.056367
     50 HABA         3.6560     4.3750     2.1400 h1         1 ED4       0.056367
     51 HABB         3.0700     4.6170     0.4940 h1         1 ED4       0.056367
     52 HAP          5.6100     2.9310     2.4020 h5         1 ED4       0.052100
     53 HAO          5.5330     0.6180    -1.0670 h4         1 ED4       0.050100
     54 HAW          2.7460     0.0530    -0.3260 h1         1 ED4       0.068700
     55 HAWA         1.3220     0.3240     0.6300 h1         1 ED4       0.068700
     56 HAX         -0.0560     0.0110    -1.5510 h1         1 ED4       0.076700
     57 HAXA         1.4300    -0.4030    -2.3530 h1         1 ED4       0.076700
     58 HAQ          5.5990    -1.6860     1.2340 h5         1 ED4       0.073100
     59 HAA          4.2010    -4.0230     3.4940 h1         1 ED4       0.061033
     60 HAAA         5.2680    -4.9930     2.4590 h1         1 ED4       0.061033
     61 HAAB         5.7740    -3.3870     2.9960 h1         1 ED4       0.061033
     62 HAR          2.7250    -4.7410     1.1080 h4         1 ED4       0.198000
     63 HAZ          0.3010    -2.8460     0.8020 h1         1 ED4       0.043200
     64 HAZA        -0.2230    -1.1950     0.7670 h1         1 ED4       0.043200
     65 HBI         -1.4530    -3.4390    -0.8830 hc         1 ED4       0.075700
     66 HAT         -1.8710    -3.7880     1.4870 hc         1 ED4       0.049450
     67 HATA        -2.3370    -2.1090     1.7160 hc         1 ED4       0.049450
     68 HAV         -3.8130    -4.1580    -0.0050 h1         1 ED4       0.065450
     69 HAVA        -4.3570    -3.5280     1.5410 h1         1 ED4       0.065450
     70 HAS         -2.2810    -0.5230    -0.5270 hc         1 ED4       0.049450
     71 HASA        -1.8020    -1.3160    -2.0230 hc         1 ED4       0.049450
     72 HAU         -4.2720    -1.1070    -1.8630 h1         1 ED4       0.065450
     73 HAUA        -3.7730    -2.7850    -1.9230 h1         1 ED4       0.065450
     74 HAE         -4.3620     1.7920     1.5320 hc         1 ED4       0.049256
     75 HAEA        -5.9090     2.4930     1.9870 hc         1 ED4       0.049256
     76 HAEB        -5.4630     0.8950     2.5820 hc         1 ED4       0.049256
     77 HAD         -6.5100     1.6130    -1.5520 hc         1 ED4       0.049256
     78 HADA        -6.5370     2.9060    -0.3530 hc         1 ED4       0.049256
     79 HADB        -4.9960     2.2530    -0.9030 hc         1 ED4       0.049256
     80 HAC         -7.6210    -0.1110     1.5870 hc         1 ED4       0.049256
     81 HACA        -8.0960     1.4860     1.0170 hc         1 ED4       0.049256
     82 HACB        -7.9920     0.1490    -0.1250 hc         1 ED4       0.049256
@<TRIPOS>BOND
     1     1     2 3   
     2     2     3 1   
     3     3     4 ar  
     4     3     6 ar  
     5     4     5 ar  
     6     4    43 1   
     7     5     8 ar  
     8     5    44 1   
     9     6     7 ar  
    10     6    45 1   
    11     7     8 ar  
    12     7    46 1   
    13     8     9 1   
    14     9    10 1   
    15     9    17 1   
    16    10    11 1   
    17    10    47 1   
    18    10    48 1   
    19    11    12 1   
    20    11    16 2   
    21    12    13 1   
    22    12    14 1   
    23    13    49 1   
    24    13    50 1   
    25    13    51 1   
    26    14    15 2   
    27    14    52 1   
    28    15    16 1   
    29    16    53 1   
    30    17    18 1   
    31    17    54 1   
    32    17    55 1   
    33    18    19 1   
    34    18    56 1   
    35    18    57 1   
    36    19    20 1   
    37    19    29 1   
    38    20    21 1   
    39    20    27 2   
    40    20    28 2   
    41    21    22 1   
    42    21    26 2   
    43    22    23 2   
    44    23    24 1   
    45    23    58 1   
    46    24    25 1   
    47    24    26 1   
    48    25    59 1   
    49    25    60 1   
    50    25    61 1   
    51    26    62 1   
    52    29    30 1   
    53    29    63 1   
    54    29    64 1   
    55    30    31 1   
    56    30    33 1   
    57    30    65 1   
    58    31    32 1   
    59    31    66 1   
    60    31    67 1   
    61    32    35 1   
    62    32    68 1   
    63    32    69 1   
    64    33    34 1   
    65    33    70 1   
    66    33    71 1   
    67    34    35 1   
    68    34    72 1   
    69    34    73 1   
    70    35    36 1   
    71    36    37 2   
    72    36    38 1   
    73    38    39 1   
    74    39    40 1   
    75    39    41 1   
    76    39    42 1   
    77    40    74 1   
    78    40    75 1   
    79    40    76 1   
    80    41    77 1   
    81    41    78 1   
    82    41    79 1   
    83    42    80 1   
    84    42    81 1   
    85    42    82 1   
@<TRIPOS>SUBSTRUCTURE
     1 ED4         1 TEMP              0 ****  ****    0 ROOT
