@<TRIPOS>MOLECULE
ED4
   82    85     1     0     0
SMALL
No Charge or Current Charge


@<TRIPOS>ATOM
      1 NAF         -3.9770     4.9270     0.0010 n1         1 ED4      -0.471000
      2 CAJ         -2.9790     4.3430    -0.1640 cg         1 ED4       0.338000
      3 CBE         -1.7440     3.6380    -0.3640 ca         1 ED4      -0.091000
      4 CAK         -1.4440     2.5010     0.4080 ca         1 ED4      -0.020000
      5 CAM         -0.2280     1.8230     0.2150 ca         1 ED4      -0.212000
      6 CAL         -0.8230     4.0870    -1.3280 ca         1 ED4      -0.020000
      7 CAN          0.3910     3.4030    -1.5140 ca         1 ED4      -0.212000
      8 CBF          0.6980     2.2680    -0.7450 ca         1 ED4       0.372000
      9 NBK          1.9190     1.5870    -0.9380 nh         1 ED4      -0.827400
     10 CAY          3.1930     2.3340    -1.0340 c3         1 ED4       0.307100
     11 CBG          4.2490     1.8580    -0.0690 cc         1 ED4      -0.246300
     12 NBN          4.1460     1.8480     1.3090 na         1 ED4      -0.153500
     13 CAB          2.9900     2.2780     2.1110 c3         1 ED4       0.055900
     14 CAP          5.3310     1.3460     1.8040 cc         1 ED4       0.394400
     15 NBA          6.1620     1.0350     0.8190 nd         1 ED4      -0.683000
     16 CAO          5.4920     1.3500    -0.3460 cd         1 ED4       0.259900
     17 CAW          1.9990     0.1030    -0.8870 c3         1 ED4       0.183800
     18 CAX          0.9850    -0.6580    -1.7930 c3         1 ED4       0.193800
     19 NBL          0.7580    -2.0990    -1.4670 n3         1 ED4      -0.764500
     20 SBP          2.1110    -3.1200    -1.7200 sy         1 ED4       1.155200
     21 CBH          3.4490    -2.7340    -0.5130 cc         1 ED4      -0.012100
     22 NBB          4.7810    -2.5270    -0.8290 nc         1 ED4      -0.610000
     23 CAQ          5.3960    -2.2480     0.3130 cd         1 ED4       0.397400
     24 NBM          4.4920    -2.2850     1.3650 na         1 ED4      -0.154500
     25 CAA          4.7950    -2.0320     2.7800 c3         1 ED4       0.049900
     26 CAR          3.2530    -2.6090     0.8410 cd         1 ED4      -0.103000
     27 OAI          1.6180    -4.4730    -1.4240 o          1 ED4      -0.537500
     28 OAH          2.5900    -2.8200    -3.0770 o          1 ED4      -0.537500
     29 CAZ         -0.0120    -2.3360    -0.2200 c3         1 ED4       0.227800
     30 CBI         -1.5480    -2.5320    -0.4160 c6         1 ED4      -0.073700
     31 CAT         -2.2400    -2.8080     0.9520 c6         1 ED4      -0.103900
     32 CAV         -3.7700    -2.9820     0.7970 c6         1 ED4       0.097000
     33 CAS         -2.2550    -1.3480    -1.1410 c6         1 ED4      -0.103900
     34 CAU         -3.7820    -1.5720    -1.2370 c6         1 ED4       0.097000
     35 NBJ         -4.3560    -1.8040     0.1150 n          1 ED4      -0.384800
     36 CBD         -5.2210    -0.9070     0.7760 c          1 ED4       0.645100
     37 OAG         -5.6130    -1.0860     1.9190 o          1 ED4      -0.550000
     38 OBC         -5.5460     0.1650    -0.0200 os         1 ED4      -0.473100
     39 CBO         -6.3900     1.2510     0.4260 c3         1 ED4       0.221000
     40 CAE         -5.7210     1.9720     1.6250 c3         1 ED4      -0.108433
     41 CAD         -6.4530     2.2000    -0.7910 c3         1 ED4      -0.108433
     42 CAC         -7.8080     0.7150     0.7510 c3         1 ED4      -0.108433
     43 HAK         -2.1460     2.1440     1.1590 ha         1 ED4       0.121500
     44 HAM         -0.0050     0.9560     0.8280 ha         1 ED4       0.118000
     45 HAL         -1.0450     4.9650    -1.9340 ha         1 ED4       0.121500
     46 HAN          1.0890     3.7510    -2.2690 ha         1 ED4       0.118000
     47 HAY          3.5830     2.2610    -2.0580 h1         1 ED4       0.066700
     48 HAYA         3.0210     3.4020    -0.8390 h1         1 ED4       0.066700
     49 HAB          2.2250     1.4930     2.0980 h1         1 ED4       0.056367
     50 HABA         3.3010     2.4630     3.1470 h1         1 ED4       0.056367
     51 HABB         2.5690     3.2000     1.6920 h1         1 ED4       0.056367
     52 HAP          5.5170     1.2310     2.8650 h5         1 ED4       0.052100
     53 HAO          5.9420     1.1960    -1.3200 h4         1 ED4       0.050100
     54 HAW          3.0050    -0.2170    -1.1870 h1         1 ED4       0.068700
     55 HAWA         1.8710    -0.2180     0.1540 h1         1 ED4       0.068700
     56 HAX          0.0340    -0.1200    -1.7390 h1         1 ED4       0.076700
     57 HAXA         1.3200    -0.5500    -2.8330 h1         1 ED4       0.076700
     58 HAQ          6.4470    -2.0220     0.4540 h5         1 ED4       0.073100
     59 HAA          4.0940    -1.2890     3.1790 h1         1 ED4       0.061033
     60 HAAA         4.6980    -2.9640     3.3490 h1         1 ED4       0.061033
     61 HAAB         5.8200    -1.6510     2.8820 h1         1 ED4       0.061033
     62 HAR          2.3590    -2.7110     1.4460 h4         1 ED4       0.180000
     63 HAZ          0.3480    -3.2340     0.2970 h1         1 ED4       0.043200
     64 HAZA         0.1350    -1.5070     0.4850 h1         1 ED4       0.043200
     65 HBI         -1.6550    -3.4290    -1.0430 hc         1 ED4       0.075700
     66 HAT         -1.8150    -3.7080     1.4170 hc         1 ED4       0.049450
     67 HATA        -2.0430    -1.9750     1.6420 hc         1 ED4       0.049450
     68 HAV         -3.9800    -3.8840     0.2030 h1         1 ED4       0.065450
     69 HAVA        -4.2250    -3.1320     1.7860 h1         1 ED4       0.065450
     70 HAS         -2.0600    -0.4080    -0.6070 hc         1 ED4       0.049450
     71 HASA        -1.8570    -1.2320    -2.1570 hc         1 ED4       0.049450
     72 HAU         -4.2460    -0.7150    -1.7430 h1         1 ED4       0.065450
     73 HAUA        -3.9810    -2.4540    -1.8630 h1         1 ED4       0.065450
     74 HAE         -4.6630     2.1680     1.4200 hc         1 ED4       0.049256
     75 HAEA        -6.2130     2.9330     1.8160 hc         1 ED4       0.049256
     76 HAEB        -5.7910     1.3840     2.5470 hc         1 ED4       0.049256
     77 HAD         -6.9060     1.6980    -1.6540 hc         1 ED4       0.049256
     78 HADA        -7.0520     3.0900    -0.5630 hc         1 ED4       0.049256
     79 HADB        -5.4480     2.5310    -1.0790 hc         1 ED4       0.049256
     80 HAC         -7.8280     0.1490     1.6880 hc         1 ED4       0.049256
     81 HACA        -8.5140     1.5470     0.8600 hc         1 ED4       0.049256
     82 HACB        -8.1720     0.0660    -0.0540 hc         1 ED4       0.049256
@<TRIPOS>BOND
     1     1     2 3   
     2     2     3 1   
     3     3     4 ar  
     4     3     6 ar  
     5     4     5 ar  
     6     4    43 1   
     7     5     8 ar  
     8     5    44 1   
     9     6     7 ar  
    10     6    45 1   
    11     7     8 ar  
    12     7    46 1   
    13     8     9 1   
    14     9    10 1   
    15     9    17 1   
    16    10    11 1   
    17    10    47 1   
    18    10    48 1   
    19    11    12 1   
    20    11    16 2   
    21    12    13 1   
    22    12    14 1   
    23    13    49 1   
    24    13    50 1   
    25    13    51 1   
    26    14    15 2   
    27    14    52 1   
    28    15    16 1   
    29    16    53 1   
    30    17    18 1   
    31    17    54 1   
    32    17    55 1   
    33    18    19 1   
    34    18    56 1   
    35    18    57 1   
    36    19    20 1   
    37    19    29 1   
    38    20    21 1   
    39    20    27 2   
    40    20    28 2   
    41    21    22 1   
    42    21    26 2   
    43    22    23 2   
    44    23    24 1   
    45    23    58 1   
    46    24    25 1   
    47    24    26 1   
    48    25    59 1   
    49    25    60 1   
    50    25    61 1   
    51    26    62 1   
    52    29    30 1   
    53    29    63 1   
    54    29    64 1   
    55    30    31 1   
    56    30    33 1   
    57    30    65 1   
    58    31    32 1   
    59    31    66 1   
    60    31    67 1   
    61    32    35 1   
    62    32    68 1   
    63    32    69 1   
    64    33    34 1   
    65    33    70 1   
    66    33    71 1   
    67    34    35 1   
    68    34    72 1   
    69    34    73 1   
    70    35    36 1   
    71    36    37 2   
    72    36    38 1   
    73    38    39 1   
    74    39    40 1   
    75    39    41 1   
    76    39    42 1   
    77    40    74 1   
    78    40    75 1   
    79    40    76 1   
    80    41    77 1   
    81    41    78 1   
    82    41    79 1   
    83    42    80 1   
    84    42    81 1   
    85    42    82 1   
@<TRIPOS>SUBSTRUCTURE
     1 ED4         1 TEMP              0 ****  ****    0 ROOT
