@<TRIPOS>MOLECULE
ED5
   85    88     1     0     0
SMALL
abcg2


@<TRIPOS>ATOM
      1 OAG          4.8620    -1.5780     1.2300 o          1 ED5      -0.561000
      2 CBE          5.1580    -0.4280     0.9570 c          1 ED5       0.644100
      3 OBD          6.1280    -0.0730     0.1210 os         1 ED5      -0.473100
      4 CBP          6.9500    -1.0300    -0.5970 c3         1 ED5       0.222000
      5 CAC          6.1060    -1.9060    -1.5160 c3         1 ED5      -0.108767
      6 CAD          7.8590    -0.1380    -1.4330 c3         1 ED5      -0.108767
      7 CAE          7.7860    -1.8630     0.3670 c3         1 ED5      -0.108767
      8 NBL          4.5480     0.6570     1.5040 n          1 ED5      -0.380800
      9 CAX          3.3260     0.4570     2.2640 c6         1 ED5       0.095500
     10 CAV          2.1060     0.6000     1.3640 c6         1 ED5      -0.105400
     11 CAW          4.6140     1.9850     0.9120 c6         1 ED5       0.095500
     12 CAU          3.4560     2.1810    -0.0590 c6         1 ED5      -0.105400
     13 CBK          2.1080     1.9400     0.6270 c6         1 ED5      -0.096700
     14 CBB          1.0000     2.0560    -0.4200 c3         1 ED5       0.228800
     15 NBN         -0.3660     1.8060     0.0370 n3         1 ED5      -0.780500
     16 SBQ         -1.0300     2.8250     1.1470 sy         1 ED5       1.169600
     17 OAI         -1.0140     2.2390     2.4820 o          1 ED5      -0.543500
     18 OAH         -0.3840     4.1180     0.9720 o          1 ED5      -0.543500
     19 CBJ         -2.7290     2.9140     0.6300 ca         1 ED5      -0.276500
     20 CAN         -3.6850     2.4160     1.5080 ca         1 ED5      -0.018000
     21 CAL         -5.0280     2.4730     1.1730 ca         1 ED5      -0.136000
     22 CAK         -5.4010     3.0230    -0.0440 ca         1 ED5      -0.054000
     23 CAM         -4.4370     3.5180    -0.9100 ca         1 ED5      -0.139000
     24 CBF         -3.0790     3.4890    -0.6000 ca         1 ED5       0.026700
     25 CAA         -2.0980     4.0820    -1.5680 c3         1 ED5      -0.072800
     26 CAZ         -0.9060     0.4560    -0.0590 c3         1 ED5       0.186800
     27 CAY         -1.3850     0.1710    -1.4850 c3         1 ED5       0.213800
     28 NBM         -1.9010    -1.1710    -1.6510 nh         1 ED5      -0.818400
     29 CBH         -3.1530    -1.5030    -1.2190 ca         1 ED5       0.364000
     30 CAQ         -4.0580    -0.5160    -0.7710 ca         1 ED5      -0.201500
     31 CAO         -5.3370    -0.8400    -0.3810 ca         1 ED5      -0.023500
     32 CAR         -3.6110    -2.8380    -1.2190 ca         1 ED5      -0.201500
     33 CAP         -4.8930    -3.1560    -0.8290 ca         1 ED5      -0.023500
     34 CBG         -5.7800    -2.1630    -0.4070 ca         1 ED5      -0.083000
     35 CAJ         -7.1000    -2.4940    -0.0030 cg         1 ED5       0.336000
     36 NAF         -8.1770    -2.7610     0.3150 n1         1 ED5      -0.470000
     37 CBA         -0.9400    -2.1830    -2.0570 c3         1 ED5       0.305100
     38 CBI         -0.1160    -2.7260    -0.9300 cc         1 ED5      -0.265300
     39 CAS         -0.4670    -3.4320     0.1900 cd         1 ED5       0.259900
     40 NBC          0.6190    -3.6440     0.9860 nd         1 ED5      -0.670000
     41 CAT          1.6200    -3.0800     0.3610 cc         1 ED5       0.405400
     42 NBO          1.2340    -2.5090    -0.8010 na         1 ED5      -0.167500
     43 CAB          2.1120    -1.8500    -1.7390 c3         1 ED5       0.051900
     44 HAC          5.4670    -1.2970    -2.1590 hc         1 ED5       0.049367
     45 HACA         6.7680    -2.4810    -2.1640 hc         1 ED5       0.049367
     46 HACB         5.4870    -2.6110    -0.9680 hc         1 ED5       0.049367
     47 HAD          8.4710     0.5080    -0.8020 hc         1 ED5       0.049367
     48 HADA         8.5300    -0.7530    -2.0330 hc         1 ED5       0.049367
     49 HADB         7.2810     0.4910    -2.1130 hc         1 ED5       0.049367
     50 HAE          7.1760    -2.5330     0.9690 hc         1 ED5       0.049367
     51 HAEA         8.4880    -2.4730    -0.2040 hc         1 ED5       0.049367
     52 HAEB         8.3680    -1.2240     1.0320 hc         1 ED5       0.049367
     53 HAX          3.3410    -0.5160     2.7480 h1         1 ED5       0.069700
     54 HAXA         3.2980     1.2110     3.0560 h1         1 ED5       0.069700
     55 HAV          2.1080    -0.2280     0.6460 hc         1 ED5       0.052450
     56 HAVA         1.2040     0.4980     1.9720 hc         1 ED5       0.052450
     57 HAW          4.5400     2.7120     1.7250 h1         1 ED5       0.069700
     58 HAWA         5.5710     2.1470     0.4260 h1         1 ED5       0.069700
     59 HAU          3.4910     3.1910    -0.4760 hc         1 ED5       0.052450
     60 HAUA         3.5770     1.4870    -0.8990 hc         1 ED5       0.052450
     61 HBK          1.9720     2.7340     1.3700 hc         1 ED5       0.068700
     62 HBB          1.0450     3.0350    -0.8990 h1         1 ED5       0.056200
     63 HBBA         1.1830     1.3290    -1.2150 h1         1 ED5       0.056200
     64 HAN         -3.3860     1.9770     2.4490 ha         1 ED5       0.147000
     65 HAL         -5.7710     2.0840     1.8550 ha         1 ED5       0.125000
     66 HAK         -6.4450     3.0680    -0.3240 ha         1 ED5       0.120000
     67 HAM         -4.7450     3.9460    -1.8560 ha         1 ED5       0.117000
     68 HAA         -1.2430     3.4340    -1.7460 hc         1 ED5       0.059367
     69 HAAA        -2.5830     4.2660    -2.5240 hc         1 ED5       0.059367
     70 HAAB        -1.7120     5.0320    -1.2000 hc         1 ED5       0.059367
     71 HAZ         -0.1520    -0.2720     0.2430 h1         1 ED5       0.068200
     72 HAZA        -1.7320     0.3290     0.6420 h1         1 ED5       0.068200
     73 HAY         -2.1340     0.9070    -1.7790 h1         1 ED5       0.055700
     74 HAYA        -0.5620     0.2980    -2.1890 h1         1 ED5       0.055700
     75 HAQ         -3.7740     0.5260    -0.7280 ha         1 ED5       0.121000
     76 HAO         -6.0030    -0.0530    -0.0510 ha         1 ED5       0.120500
     77 HAR         -2.9700    -3.6520    -1.5230 ha         1 ED5       0.121000
     78 HAP         -5.2050    -4.1910    -0.8450 ha         1 ED5       0.120500
     79 HBA         -1.4550    -2.9870    -2.5790 h1         1 ED5       0.061200
     80 HBAA        -0.2970    -1.7320    -2.8150 h1         1 ED5       0.061200
     81 HAS         -1.4500    -3.7840     0.4650 h4         1 ED5       0.042100
     82 HAT          2.6460    -3.0450     0.6990 h5         1 ED5       0.077100
     83 HAB          2.1690    -2.3970    -2.6790 h1         1 ED5       0.053033
     84 HABA         1.7820    -0.8330    -1.9460 h1         1 ED5       0.053033
     85 HABB         3.1090    -1.8010    -1.3080 h1         1 ED5       0.053033
@<TRIPOS>BOND
     1     1     2 2   
     2     2     3 1   
     3     2     8 1   
     4     3     4 1   
     5     4     5 1   
     6     4     6 1   
     7     4     7 1   
     8     5    44 1   
     9     5    45 1   
    10     5    46 1   
    11     6    47 1   
    12     6    48 1   
    13     6    49 1   
    14     7    50 1   
    15     7    51 1   
    16     7    52 1   
    17     8     9 1   
    18     8    11 1   
    19     9    10 1   
    20     9    53 1   
    21     9    54 1   
    22    10    13 1   
    23    10    55 1   
    24    10    56 1   
    25    11    12 1   
    26    11    57 1   
    27    11    58 1   
    28    12    13 1   
    29    12    59 1   
    30    12    60 1   
    31    13    14 1   
    32    13    61 1   
    33    14    15 1   
    34    14    62 1   
    35    14    63 1   
    36    15    16 1   
    37    15    26 1   
    38    16    17 2   
    39    16    18 2   
    40    16    19 1   
    41    19    20 ar  
    42    19    24 ar  
    43    20    21 ar  
    44    20    64 1   
    45    21    22 ar  
    46    21    65 1   
    47    22    23 ar  
    48    22    66 1   
    49    23    24 ar  
    50    23    67 1   
    51    24    25 1   
    52    25    68 1   
    53    25    69 1   
    54    25    70 1   
    55    26    27 1   
    56    26    71 1   
    57    26    72 1   
    58    27    28 1   
    59    27    73 1   
    60    27    74 1   
    61    28    29 1   
    62    28    37 1   
    63    29    30 ar  
    64    29    32 ar  
    65    30    31 ar  
    66    30    75 1   
    67    31    34 ar  
    68    31    76 1   
    69    32    33 ar  
    70    32    77 1   
    71    33    34 ar  
    72    33    78 1   
    73    34    35 1   
    74    35    36 3   
    75    37    38 1   
    76    37    79 1   
    77    37    80 1   
    78    38    39 2   
    79    38    42 1   
    80    39    40 1   
    81    39    81 1   
    82    40    41 2   
    83    41    42 1   
    84    41    82 1   
    85    42    43 1   
    86    43    83 1   
    87    43    84 1   
    88    43    85 1   
@<TRIPOS>SUBSTRUCTURE
     1 ED5         1 TEMP              0 ****  ****    0 ROOT
