@<TRIPOS>MOLECULE
ED5
   85    88     1     0     0
SMALL
No Charge or Current Charge


@<TRIPOS>ATOM
      1 OAG          5.0240    -1.8190     0.9800 o          1 ED5      -0.561000
      2 CBE          5.2430    -0.6430     0.7300 c          1 ED5       0.644100
      3 OBD          6.2570    -0.1740    -0.0690 os         1 ED5      -0.473100
      4 CBP          7.2000    -1.0460    -0.7350 c3         1 ED5       0.222000
      5 CAC          6.4460    -1.9710    -1.7260 c3         1 ED5      -0.108767
      6 CAD          8.1200    -0.0800    -1.5150 c3         1 ED5      -0.108767
      7 CAE          8.0260    -1.8260     0.3200 c3         1 ED5      -0.108767
      8 NBL          4.4360     0.4030     1.2210 n          1 ED5      -0.380800
      9 CAX          3.1860     0.1450     1.9680 c6         1 ED5       0.095500
     10 CAV          1.9610     0.5140     1.1000 c6         1 ED5      -0.105400
     11 CAW          4.5890     1.8310     0.8430 c6         1 ED5       0.095500
     12 CAU          3.4180     2.2570    -0.0720 c6         1 ED5      -0.105400
     13 CBK          2.0270     1.9830     0.5810 c6         1 ED5      -0.096700
     14 CBB          0.8970     2.3700    -0.4360 c3         1 ED5       0.228800
     15 NBN         -0.5270     2.1400    -0.0800 n3         1 ED5      -0.780500
     16 SBQ         -1.1440     3.0750     1.2050 sy         1 ED5       1.169600
     17 OAI         -0.6210     2.5040     2.4510 o          1 ED5      -0.543500
     18 OAH         -0.9010     4.4740     0.8350 o          1 ED5      -0.543500
     19 CBJ         -2.9340     2.7800     1.0870 ca         1 ED5      -0.276500
     20 CAN         -3.5550     2.0590     2.1330 ca         1 ED5      -0.018000
     21 CAL         -4.9230     1.7530     2.0770 ca         1 ED5      -0.136000
     22 CAK         -5.6900     2.1630     0.9790 ca         1 ED5      -0.054000
     23 CAM         -5.0850     2.8780    -0.0650 ca         1 ED5      -0.139000
     24 CBF         -3.7100     3.1920    -0.0320 ca         1 ED5       0.026700
     25 CAA         -3.1230     3.9490    -1.2220 c3         1 ED5      -0.072800
     26 CAZ         -1.0600     0.7500    -0.1820 c3         1 ED5       0.186800
     27 CAY         -0.7980     0.0200    -1.5260 c3         1 ED5       0.213800
     28 NBM         -1.5760    -1.2380    -1.6900 nh         1 ED5      -0.818400
     29 CBH         -2.9890    -1.2320    -1.5840 ca         1 ED5       0.364000
     30 CAQ         -3.7340    -0.1570    -2.1090 ca         1 ED5      -0.201500
     31 CAO         -5.1300    -0.1030    -1.9590 ca         1 ED5      -0.023500
     32 CAR         -3.6760    -2.2610    -0.9130 ca         1 ED5      -0.201500
     33 CAP         -5.0730    -2.2140    -0.7580 ca         1 ED5      -0.023500
     34 CBG         -5.8040    -1.1310    -1.2770 ca         1 ED5      -0.083000
     35 CAJ         -7.2280    -1.0700    -1.1070 cg         1 ED5       0.336000
     36 NAF         -8.3860    -1.0120    -0.9650 n1         1 ED5      -0.470000
     37 CBA         -0.8010    -2.4900    -1.8010 c3         1 ED5       0.305100
     38 CBI          0.0420    -2.7740    -0.5840 cc         1 ED5      -0.265300
     39 CAS         -0.3710    -3.0200     0.7010 cd         1 ED5       0.259900
     40 NBC          0.7080    -3.2490     1.5290 nd         1 ED5      -0.670000
     41 CAT          1.7810    -3.1330     0.7600 cc         1 ED5       0.405400
     42 NBO          1.4250    -2.8320    -0.5390 na         1 ED5      -0.167500
     43 CAB          2.3590    -2.6040    -1.6520 c3         1 ED5       0.051900
     44 HAC          5.7260    -1.3990    -2.3230 hc         1 ED5       0.049367
     45 HACA         7.1530    -2.4490    -2.4150 hc         1 ED5       0.049367
     46 HACB         5.9090    -2.7730    -1.2090 hc         1 ED5       0.049367
     47 HAD          8.6250     0.6130    -0.8320 hc         1 ED5       0.049367
     48 HADA         8.8880    -0.6330    -2.0680 hc         1 ED5       0.049367
     49 HADB         7.5420     0.5110    -2.2360 hc         1 ED5       0.049367
     50 HAE          7.4370    -2.6130     0.8020 hc         1 ED5       0.049367
     51 HAEA         8.8880    -2.3110    -0.1540 hc         1 ED5       0.049367
     52 HAEB         8.4030    -1.1500     1.0960 hc         1 ED5       0.049367
     53 HAX          3.1200    -0.9080     2.2760 h1         1 ED5       0.069700
     54 HAXA         3.1830     0.7510     2.8860 h1         1 ED5       0.069700
     55 HAV          1.8930    -0.1770     0.2510 hc         1 ED5       0.052450
     56 HAVA         1.0670     0.3680     1.7160 hc         1 ED5       0.052450
     57 HAW          4.5820     2.4450     1.7550 h1         1 ED5       0.069700
     58 HAWA         5.5450     2.0240     0.3370 h1         1 ED5       0.069700
     59 HAU          3.5160     3.3230    -0.3180 hc         1 ED5       0.052450
     60 HAUA         3.4970     1.7110    -1.0230 hc         1 ED5       0.052450
     61 HBK          1.9210     2.6560     1.4430 hc         1 ED5       0.068700
     62 HBB          1.0300     3.4380    -0.6600 h1         1 ED5       0.056200
     63 HBBA         1.1200     1.8560    -1.3790 h1         1 ED5       0.056200
     64 HAN         -2.9790     1.7210     2.9940 ha         1 ED5       0.147000
     65 HAL         -5.3890     1.1950     2.8870 ha         1 ED5       0.125000
     66 HAK         -6.7510     1.9240     0.9340 ha         1 ED5       0.120000
     67 HAM         -5.6940     3.1860    -0.9120 ha         1 ED5       0.117000
     68 HAA         -2.2690     3.4210    -1.6590 hc         1 ED5       0.059367
     69 HAAA        -3.8580     4.0720    -2.0250 hc         1 ED5       0.059367
     70 HAAB        -2.7970     4.9540    -0.9320 hc         1 ED5       0.059367
     71 HAZ         -0.6990     0.1150     0.6330 h1         1 ED5       0.068200
     72 HAZA        -2.1480     0.7700    -0.0690 h1         1 ED5       0.068200
     73 HAY         -1.0310     0.7060    -2.3500 h1         1 ED5       0.055700
     74 HAYA         0.2760    -0.1930    -1.5980 h1         1 ED5       0.055700
     75 HAQ         -3.2350     0.6490    -2.6370 ha         1 ED5       0.121000
     76 HAO         -5.6830     0.7410    -2.3670 ha         1 ED5       0.120500
     77 HAR         -3.1330    -3.0960    -0.4840 ha         1 ED5       0.121000
     78 HAP         -5.5830    -3.0160    -0.2260 ha         1 ED5       0.120500
     79 HBA         -1.4680    -3.3450    -1.9760 h1         1 ED5       0.061200
     80 HBAA        -0.1560    -2.4340    -2.6890 h1         1 ED5       0.061200
     81 HAS         -1.3860    -3.0510     1.0770 h4         1 ED5       0.042100
     82 HAT          2.8130    -3.2500     1.0700 h5         1 ED5       0.077100
     83 HAB          2.1730    -3.3380    -2.4460 h1         1 ED5       0.053033
     84 HABA         2.2180    -1.5920    -2.0510 h1         1 ED5       0.053033
     85 HABB         3.3930    -2.7100    -1.3000 h1         1 ED5       0.053033
@<TRIPOS>BOND
     1     1     2 2   
     2     2     3 1   
     3     2     8 1   
     4     3     4 1   
     5     4     5 1   
     6     4     6 1   
     7     4     7 1   
     8     5    44 1   
     9     5    45 1   
    10     5    46 1   
    11     6    47 1   
    12     6    48 1   
    13     6    49 1   
    14     7    50 1   
    15     7    51 1   
    16     7    52 1   
    17     8     9 1   
    18     8    11 1   
    19     9    10 1   
    20     9    53 1   
    21     9    54 1   
    22    10    13 1   
    23    10    55 1   
    24    10    56 1   
    25    11    12 1   
    26    11    57 1   
    27    11    58 1   
    28    12    13 1   
    29    12    59 1   
    30    12    60 1   
    31    13    14 1   
    32    13    61 1   
    33    14    15 1   
    34    14    62 1   
    35    14    63 1   
    36    15    16 1   
    37    15    26 1   
    38    16    17 2   
    39    16    18 2   
    40    16    19 1   
    41    19    20 ar  
    42    19    24 ar  
    43    20    21 ar  
    44    20    64 1   
    45    21    22 ar  
    46    21    65 1   
    47    22    23 ar  
    48    22    66 1   
    49    23    24 ar  
    50    23    67 1   
    51    24    25 1   
    52    25    68 1   
    53    25    69 1   
    54    25    70 1   
    55    26    27 1   
    56    26    71 1   
    57    26    72 1   
    58    27    28 1   
    59    27    73 1   
    60    27    74 1   
    61    28    29 1   
    62    28    37 1   
    63    29    30 ar  
    64    29    32 ar  
    65    30    31 ar  
    66    30    75 1   
    67    31    34 ar  
    68    31    76 1   
    69    32    33 ar  
    70    32    77 1   
    71    33    34 ar  
    72    33    78 1   
    73    34    35 1   
    74    35    36 3   
    75    37    38 1   
    76    37    79 1   
    77    37    80 1   
    78    38    39 2   
    79    38    42 1   
    80    39    40 1   
    81    39    81 1   
    82    40    41 2   
    83    41    42 1   
    84    41    82 1   
    85    42    43 1   
    86    43    83 1   
    87    43    84 1   
    88    43    85 1   
@<TRIPOS>SUBSTRUCTURE
     1 ED5         1 TEMP              0 ****  ****    0 ROOT
