@<TRIPOS>MOLECULE
ED7
   65    68     1     0     0
SMALL
No Charge or Current Charge


@<TRIPOS>ATOM
      1 CAA         -3.0780    -3.6470     0.6720 c3         1 ED7      -0.080800
      2 CBA         -3.4800    -2.4850     1.5760 ca         1 ED7       0.029700
      3 CAL         -3.4940    -2.7220     2.9670 ca         1 ED7      -0.131000
      4 CAJ         -3.8690    -1.7180     3.8720 ca         1 ED7      -0.056000
      5 CAK         -4.2420    -0.4560     3.3950 ca         1 ED7      -0.131000
      6 CAQ         -4.2350    -0.1980     2.0160 ca         1 ED7      -0.031000
      7 CBF         -3.8510    -1.1970     1.0920 ca         1 ED7      -0.271500
      8 SBJ         -3.8620    -0.7100    -0.6600 sy         1 ED7       1.185600
      9 OAD         -3.3480    -1.7710    -1.5310 o          1 ED7      -0.546000
     10 OAE         -5.1570    -0.0670    -0.9110 o          1 ED7      -0.546000
     11 NBH         -2.7260     0.5590    -0.7030 n3         1 ED7      -0.798500
     12 CAX         -2.5850     1.1600    -2.0490 c3         1 ED7       0.281100
     13 CBC         -1.6780     2.3900    -2.0780 ca         1 ED7      -0.128300
     14 CAM         -0.5600     2.4320    -2.9360 ca         1 ED7      -0.097000
     15 CAH          0.2840     3.5560    -2.9470 ca         1 ED7      -0.111500
     16 CAG          0.0170     4.6460    -2.1020 ca         1 ED7      -0.100000
     17 CAI         -1.0990     4.6140    -1.2490 ca         1 ED7      -0.111500
     18 CAN         -1.9460     3.4910    -1.2400 ca         1 ED7      -0.097000
     19 CAW         -1.4420     0.3210     0.0230 c3         1 ED7       0.195800
     20 CAV         -0.4430    -0.6850    -0.6200 c3         1 ED7       0.203800
     21 NBG          0.8380    -0.8240     0.1220 nh         1 ED7      -0.830400
     22 CBD          1.6250     0.3100     0.4150 ca         1 ED7       0.359000
     23 CAR          2.1000     0.5380     1.7180 ca         1 ED7      -0.197500
     24 CAO          2.8620     1.6830     2.0120 ca         1 ED7      -0.026000
     25 CBB          3.1510     2.6150     0.9990 ca         1 ED7      -0.081000
     26 CAF          3.9240     3.7880     1.2950 cg         1 ED7       0.335000
     27 NAC          4.5610     4.7370     1.5330 n1         1 ED7      -0.468000
     28 CAP          2.6770     2.3930    -0.3070 ca         1 ED7      -0.026000
     29 CAS          1.9190     1.2440    -0.5920 ca         1 ED7      -0.197500
     30 CAY          1.1850    -2.1590     0.6580 c3         1 ED7       0.302100
     31 CBE          2.6610    -2.4580     0.6400 cc         1 ED7      -0.234300
     32 CAT          3.4890    -2.7430     1.6950 cd         1 ED7       0.243900
     33 NAZ          4.7820    -2.9540     1.2600 nd         1 ED7      -0.668000
     34 CAU          4.7460    -2.7920    -0.0560 cc         1 ED7       0.396400
     35 NBI          3.4690    -2.4930    -0.4810 na         1 ED7      -0.148500
     36 CAB          3.0580    -2.2430    -1.8720 c3         1 ED7       0.057900
     37 HAA         -3.8620    -3.8730    -0.0600 hc         1 ED7       0.063367
     38 HAAA        -2.1480    -3.4350     0.1350 hc         1 ED7       0.063367
     39 HAAB        -2.9090    -4.5680     1.2420 hc         1 ED7       0.063367
     40 HAL         -3.2130    -3.6980     3.3570 ha         1 ED7       0.116000
     41 HAJ         -3.8740    -1.9200     4.9410 ha         1 ED7       0.117000
     42 HAK         -4.5350     0.3250     4.0930 ha         1 ED7       0.119000
     43 HAQ         -4.5180     0.7920     1.6630 ha         1 ED7       0.127000
     44 HAX         -2.1980     0.4150    -2.7580 h1         1 ED7       0.069200
     45 HAXA        -3.5700     1.4680    -2.4280 h1         1 ED7       0.069200
     46 HAM         -0.3400     1.5930    -3.5920 ha         1 ED7       0.121500
     47 HAH          1.1470     3.5810    -3.6090 ha         1 ED7       0.118500
     48 HAG          0.6720     5.5140    -2.1080 ha         1 ED7       0.116000
     49 HAI         -1.3080     5.4570    -0.5950 ha         1 ED7       0.118500
     50 HAN         -2.8040     3.4690    -0.5710 ha         1 ED7       0.121500
     51 HAW         -0.9140     1.2770     0.1320 h1         1 ED7       0.062200
     52 HAWA        -1.6310    -0.0100     1.0510 h1         1 ED7       0.062200
     53 HAV         -0.9360    -1.6600    -0.6940 h1         1 ED7       0.064700
     54 HAVA        -0.2320    -0.3680    -1.6500 h1         1 ED7       0.064700
     55 HAR          1.8690    -0.1660     2.5110 ha         1 ED7       0.119500
     56 HAO          3.2200     1.8450     3.0280 ha         1 ED7       0.121500
     57 HAP          2.8930     3.1060    -1.1010 ha         1 ED7       0.121500
     58 HAS          1.5660     1.0780    -1.6040 ha         1 ED7       0.119500
     59 HAY          0.8150    -2.2470     1.6900 h1         1 ED7       0.063200
     60 HAYA         0.6820    -2.9430     0.0760 h1         1 ED7       0.063200
     61 HAT          3.2250    -2.8080     2.7440 h4         1 ED7       0.036100
     62 HAU          5.5830    -2.8780    -0.7400 h5         1 ED7       0.055100
     63 HAB          2.9250    -1.1650    -2.0250 h1         1 ED7       0.055033
     64 HABA         3.8260    -2.6140    -2.5620 h1         1 ED7       0.055033
     65 HABB         2.1110    -2.7560    -2.0770 h1         1 ED7       0.055033
@<TRIPOS>BOND
     1     1     2 1   
     2     1    37 1   
     3     1    38 1   
     4     1    39 1   
     5     2     3 ar  
     6     2     7 ar  
     7     3     4 ar  
     8     3    40 1   
     9     4     5 ar  
    10     4    41 1   
    11     5     6 ar  
    12     5    42 1   
    13     6     7 ar  
    14     6    43 1   
    15     7     8 1   
    16     8     9 2   
    17     8    10 2   
    18     8    11 1   
    19    11    12 1   
    20    11    19 1   
    21    12    13 1   
    22    12    44 1   
    23    12    45 1   
    24    13    14 ar  
    25    13    18 ar  
    26    14    15 ar  
    27    14    46 1   
    28    15    16 ar  
    29    15    47 1   
    30    16    17 ar  
    31    16    48 1   
    32    17    18 ar  
    33    17    49 1   
    34    18    50 1   
    35    19    20 1   
    36    19    51 1   
    37    19    52 1   
    38    20    21 1   
    39    20    53 1   
    40    20    54 1   
    41    21    22 1   
    42    21    30 1   
    43    22    23 ar  
    44    22    29 ar  
    45    23    24 ar  
    46    23    55 1   
    47    24    25 ar  
    48    24    56 1   
    49    25    26 1   
    50    25    28 ar  
    51    26    27 3   
    52    28    29 ar  
    53    28    57 1   
    54    29    58 1   
    55    30    31 1   
    56    30    59 1   
    57    30    60 1   
    58    31    32 2   
    59    31    35 1   
    60    32    33 1   
    61    32    61 1   
    62    33    34 2   
    63    34    35 1   
    64    34    62 1   
    65    35    36 1   
    66    36    63 1   
    67    36    64 1   
    68    36    65 1   
@<TRIPOS>SUBSTRUCTURE
     1 ED7         1 TEMP              0 ****  ****    0 ROOT
