@<TRIPOS>MOLECULE
ED7
   65    68     1     0     0
SMALL
abcg2


@<TRIPOS>ATOM
      1 CAA         -5.0500    -2.8980     0.4610 c3         1 ED7      -0.080800
      2 CBA         -4.7070    -1.5920     1.1190 ca         1 ED7       0.029700
      3 CAL         -5.4140    -1.1960     2.2510 ca         1 ED7      -0.131000
      4 CAJ         -5.1370    -0.0070     2.9110 ca         1 ED7      -0.056000
      5 CAK         -4.1340     0.8260     2.4470 ca         1 ED7      -0.131000
      6 CAQ         -3.4130     0.4630     1.3190 ca         1 ED7      -0.031000
      7 CBF         -3.6950    -0.7310     0.6700 ca         1 ED7      -0.271500
      8 SBJ         -2.7740    -1.1770    -0.7910 sy         1 ED7       1.185600
      9 OAD         -2.1680    -2.4760    -0.5290 o          1 ED7      -0.546000
     10 OAE         -3.6530    -1.0300    -1.9430 o          1 ED7      -0.546000
     11 NBH         -1.5680    -0.0860    -0.9460 n3         1 ED7      -0.798500
     12 CAX         -1.6200     1.0090    -1.9190 c3         1 ED7       0.281100
     13 CBC         -2.1630     2.2880    -1.3430 ca         1 ED7      -0.128300
     14 CAM         -1.3130     3.2250    -0.7620 ca         1 ED7      -0.097000
     15 CAH         -1.8250     4.3710    -0.1680 ca         1 ED7      -0.111500
     16 CAG         -3.1950     4.5930    -0.1560 ca         1 ED7      -0.100000
     17 CAI         -4.0500     3.6710    -0.7480 ca         1 ED7      -0.111500
     18 CAN         -3.5360     2.5260    -1.3370 ca         1 ED7      -0.097000
     19 CAW         -0.3990    -0.2040    -0.0900 c3         1 ED7       0.195800
     20 CAV          0.7490    -0.9340    -0.7900 c3         1 ED7       0.203800
     21 NBG          1.9560    -0.9220     0.0070 nh         1 ED7      -0.830400
     22 CBD          2.6990     0.2200     0.1240 ca         1 ED7       0.359000
     23 CAR          3.6840     0.3610     1.1230 ca         1 ED7      -0.197500
     24 CAO          4.4290     1.5130     1.2360 ca         1 ED7      -0.026000
     25 CBB          4.2300     2.5830     0.3610 ca         1 ED7      -0.081000
     26 CAF          5.0000     3.7700     0.4800 cg         1 ED7       0.335000
     27 NAC          5.6280     4.7340     0.5750 n1         1 ED7      -0.468000
     28 CAP          3.2590     2.4610    -0.6340 ca         1 ED7      -0.026000
     29 CAS          2.5110     1.3110    -0.7510 ca         1 ED7      -0.197500
     30 CAY          2.1740    -2.0480     0.9040 c3         1 ED7       0.302100
     31 CBE          3.4570    -2.7750     0.6750 cc         1 ED7      -0.234300
     32 CAT          4.4590    -3.1020     1.5470 cd         1 ED7       0.243900
     33 NAZ          5.4330    -3.8160     0.9160 nd         1 ED7      -0.668000
     34 CAU          5.0280    -3.9210    -0.3240 cc         1 ED7       0.396400
     35 NBI          3.8400    -3.3140    -0.5250 na         1 ED7      -0.148500
     36 CAB          3.1280    -3.2570    -1.7820 c3         1 ED7       0.057900
     37 HAA         -5.1860    -2.7970    -0.6150 hc         1 ED7       0.063367
     38 HAAA        -4.2690    -3.6400     0.6240 hc         1 ED7       0.063367
     39 HAAB        -5.9740    -3.2940     0.8740 hc         1 ED7       0.063367
     40 HAL         -6.2030    -1.8380     2.6230 ha         1 ED7       0.116000
     41 HAJ         -5.7090     0.2650     3.7890 ha         1 ED7       0.117000
     42 HAK         -3.9100     1.7580     2.9480 ha         1 ED7       0.119000
     43 HAQ         -2.6420     1.1250     0.9520 ha         1 ED7       0.127000
     44 HAX         -0.6000     1.1580    -2.2780 h1         1 ED7       0.069200
     45 HAXA        -2.2010     0.6950    -2.7830 h1         1 ED7       0.069200
     46 HAM         -0.2400     3.0680    -0.7810 ha         1 ED7       0.121500
     47 HAH         -1.1540     5.0920     0.2820 ha         1 ED7       0.118500
     48 HAG         -3.5960     5.4860     0.3060 ha         1 ED7       0.116000
     49 HAI         -5.1180     3.8450    -0.7490 ha         1 ED7       0.118500
     50 HAN         -4.2070     1.8080    -1.7930 ha         1 ED7       0.121500
     51 HAW         -0.0930     0.8000     0.2130 h1         1 ED7       0.062200
     52 HAWA        -0.6530    -0.7240     0.8360 h1         1 ED7       0.062200
     53 HAV          0.4540    -1.9660    -0.9700 h1         1 ED7       0.064700
     54 HAVA         0.9340    -0.5090    -1.7790 h1         1 ED7       0.064700
     55 HAR          3.8780    -0.4320     1.8290 ha         1 ED7       0.119500
     56 HAO          5.1730     1.5850     2.0180 ha         1 ED7       0.121500
     57 HAP          3.0870     3.2740    -1.3280 ha         1 ED7       0.121500
     58 HAS          1.7870     1.2700    -1.5510 ha         1 ED7       0.119500
     59 HAY          2.1390    -1.7380     1.9530 h1         1 ED7       0.063200
     60 HAYA         1.3300    -2.7280     0.7730 h1         1 ED7       0.063200
     61 HAT          4.5190    -2.8520     2.5970 h4         1 ED7       0.036100
     62 HAU          5.5520    -4.4240    -1.1230 h5         1 ED7       0.055100
     63 HAB          3.0960    -2.2410    -2.1700 h1         1 ED7       0.055033
     64 HABA         3.6390    -3.8880    -2.5040 h1         1 ED7       0.055033
     65 HABB         2.1120    -3.6300    -1.6660 h1         1 ED7       0.055033
@<TRIPOS>BOND
     1     1     2 1   
     2     1    37 1   
     3     1    38 1   
     4     1    39 1   
     5     2     3 ar  
     6     2     7 ar  
     7     3     4 ar  
     8     3    40 1   
     9     4     5 ar  
    10     4    41 1   
    11     5     6 ar  
    12     5    42 1   
    13     6     7 ar  
    14     6    43 1   
    15     7     8 1   
    16     8     9 2   
    17     8    10 2   
    18     8    11 1   
    19    11    12 1   
    20    11    19 1   
    21    12    13 1   
    22    12    44 1   
    23    12    45 1   
    24    13    14 ar  
    25    13    18 ar  
    26    14    15 ar  
    27    14    46 1   
    28    15    16 ar  
    29    15    47 1   
    30    16    17 ar  
    31    16    48 1   
    32    17    18 ar  
    33    17    49 1   
    34    18    50 1   
    35    19    20 1   
    36    19    51 1   
    37    19    52 1   
    38    20    21 1   
    39    20    53 1   
    40    20    54 1   
    41    21    22 1   
    42    21    30 1   
    43    22    23 ar  
    44    22    29 ar  
    45    23    24 ar  
    46    23    55 1   
    47    24    25 ar  
    48    24    56 1   
    49    25    26 1   
    50    25    28 ar  
    51    26    27 3   
    52    28    29 ar  
    53    28    57 1   
    54    29    58 1   
    55    30    31 1   
    56    30    59 1   
    57    30    60 1   
    58    31    32 2   
    59    31    35 1   
    60    32    33 1   
    61    32    61 1   
    62    33    34 2   
    63    34    35 1   
    64    34    62 1   
    65    35    36 1   
    66    36    63 1   
    67    36    64 1   
    68    36    65 1   
@<TRIPOS>SUBSTRUCTURE
     1 ED7         1 TEMP              0 ****  ****    0 ROOT
