@<TRIPOS>MOLECULE
ED8
   62    66     1     0     0
SMALL
abcg2


@<TRIPOS>ATOM
      1 C01          5.6850    -4.2620     2.5030 c3         1 ED8       0.152100
      2 N02          5.7410    -2.8420     2.2400 n3         1 ED8      -0.715600
      3 C03          6.5590    -2.5540     1.0780 c6         1 ED8       0.167800
      4 C04          6.6930    -1.0540     0.8500 c6         1 ED8      -0.093400
      5 C05          5.3210    -0.4210     0.7140 c6         1 ED8       0.177300
      6 O06          5.5170     0.9810     0.5640 os         1 ED8      -0.346100
      7 C07          4.5340     1.7670     0.0850 ca         1 ED8       0.177100
      8 C08          4.8610     3.1370    -0.0020 ca         1 ED8      -0.162000
      9 C09          3.9630     4.0690    -0.4740 ca         1 ED8      -0.010000
     10 C10          2.7010     3.6290    -0.8730 ca         1 ED8       0.033400
     11 N11          1.6160     4.3340    -1.3520 nc         1 ED8      -0.548100
     12 C12          0.6950     3.4500    -1.5470 cd         1 ED8       0.426700
     13 N13          1.0930     2.1730    -1.2250 na         1 ED8      -0.084400
     14 C14          0.3040     1.0340    -1.3110 cc         1 ED8      -0.077200
     15 C15         -0.9500     0.8860    -0.8050 cd         1 ED8      -0.222000
     16 C16         -1.5000    -0.3850    -1.1320 cd         1 ED8       0.196100
     17 O17         -2.7010    -0.8230    -0.7610 os         1 ED8      -0.298100
     18 C18         -3.5300     0.0450    -0.0160 c3         1 ED8       0.198900
     19 C19         -4.8640    -0.6320     0.1850 ca         1 ED8      -0.044300
     20 C20         -5.2040    -1.7360    -0.5890 ca         1 ED8      -0.088000
     21 C21         -6.4370    -2.3590    -0.4500 ca         1 ED8      -0.080000
     22 C22         -7.3580    -1.8850     0.4670 ca         1 ED8      -0.113000
     23 C23         -7.0370    -0.7850     1.2480 ca         1 ED8      -0.067000
     24 C24         -5.8050    -0.1580     1.1130 ca         1 ED8      -0.191300
     25 C25         -5.4940     1.0110     2.0010 c3         1 ED8       0.352300
     26 F26         -4.5470     0.7120     2.9060 f          1 ED8      -0.115000
     27 F27         -5.0420     2.0700     1.3110 f          1 ED8      -0.115000
     28 F28         -6.5580     1.4310     2.6890 f          1 ED8      -0.115000
     29 C29         -0.6360    -1.1800    -1.8530 cc         1 ED8      -0.354600
     30 C30         -0.8810    -2.5490    -2.3420 c          1 ED8       0.655700
     31 N31          0.2230    -3.2680    -2.6340 nt         1 ED8      -0.605000
     32 O32         -2.0140    -2.9750    -2.5040 o          1 ED8      -0.584100
     33 S33          0.8390    -0.3410    -2.1840 ss         1 ED8       0.257000
     34 C34          2.3990     2.2680    -0.7870 ca         1 ED8      -0.033200
     35 C35          3.2850     1.3070    -0.3110 ca         1 ED8      -0.217000
     36 C36          4.4780    -0.7620     1.9350 c6         1 ED8      -0.093400
     37 C37          4.4140    -2.2730     2.1100 c6         1 ED8       0.167800
     38 H01          6.6900    -4.6540     2.6640 h1         1 ED8       0.032033
     39 H01A         5.1030    -4.4530     3.4070 h1         1 ED8       0.032033
     40 H01B         5.2280    -4.8400     1.6840 h1         1 ED8       0.032033
     41 H03          7.5520    -2.9830     1.2330 h1         1 ED8       0.032450
     42 H03A         6.1510    -3.0270     0.1670 h1         1 ED8       0.032450
     43 H04          7.2220    -0.6020     1.6940 hc         1 ED8       0.063450
     44 H04A         7.2880    -0.8780    -0.0490 hc         1 ED8       0.063450
     45 H05          4.8420    -0.8230    -0.1910 h1         1 ED8       0.038700
     46 H08          5.8470     3.4500     0.3180 ha         1 ED8       0.132000
     47 H09          4.2300     5.1160    -0.5260 ha         1 ED8       0.135000
     48 H12         -0.2970     3.6360    -1.9320 h5         1 ED8       0.069800
     49 H15         -1.4380     1.6500    -0.2180 ha         1 ED8       0.156000
     50 H18         -3.0530     0.2760     0.9400 h1         1 ED8       0.058700
     51 H18A        -3.6730     0.9840    -0.5600 h1         1 ED8       0.058700
     52 H20         -4.5000    -2.1290    -1.3090 ha         1 ED8       0.157000
     53 H21         -6.6720    -3.2180    -1.0650 ha         1 ED8       0.124000
     54 H22         -8.3220    -2.3620     0.5810 ha         1 ED8       0.123000
     55 H23         -7.7620    -0.4240     1.9630 ha         1 ED8       0.131000
     56 HN31         1.1260    -3.0420    -2.2510 hn         1 ED8       0.309500
     57 HN3A         0.1050    -4.2170    -2.9500 hn         1 ED8       0.309500
     58 H35          2.9940     0.2680    -0.2500 ha         1 ED8       0.127000
     59 H36          4.9280    -0.3060     2.8210 hc         1 ED8       0.063450
     60 H36A         3.4620    -0.3720     1.8480 hc         1 ED8       0.063450
     61 H37          3.8610    -2.7170     1.2610 h1         1 ED8       0.032450
     62 H37A         3.8410    -2.5090     3.0090 h1         1 ED8       0.032450
@<TRIPOS>BOND
     1     1     2 1   
     2     1    38 1   
     3     1    39 1   
     4     1    40 1   
     5     2     3 1   
     6     2    37 1   
     7     3     4 1   
     8     3    41 1   
     9     3    42 1   
    10     4     5 1   
    11     4    43 1   
    12     4    44 1   
    13     5     6 1   
    14     5    36 1   
    15     5    45 1   
    16     6     7 1   
    17     7     8 ar  
    18     7    35 ar  
    19     8     9 ar  
    20     8    46 1   
    21     9    10 ar  
    22     9    47 1   
    23    10    11 1   
    24    10    34 ar  
    25    11    12 2   
    26    12    13 1   
    27    12    48 1   
    28    13    14 1   
    29    13    34 1   
    30    14    15 2   
    31    14    33 1   
    32    15    16 1   
    33    15    49 1   
    34    16    17 1   
    35    16    29 2   
    36    17    18 1   
    37    18    19 1   
    38    18    50 1   
    39    18    51 1   
    40    19    20 ar  
    41    19    24 ar  
    42    20    21 ar  
    43    20    52 1   
    44    21    22 ar  
    45    21    53 1   
    46    22    23 ar  
    47    22    54 1   
    48    23    24 ar  
    49    23    55 1   
    50    24    25 1   
    51    25    26 1   
    52    25    27 1   
    53    25    28 1   
    54    29    30 1   
    55    29    33 1   
    56    30    31 1   
    57    30    32 2   
    58    31    56 1   
    59    31    57 1   
    60    34    35 ar  
    61    35    58 1   
    62    36    37 1   
    63    36    59 1   
    64    36    60 1   
    65    37    61 1   
    66    37    62 1   
@<TRIPOS>SUBSTRUCTURE
     1 ED8         1 TEMP              0 ****  ****    0 ROOT
