@<TRIPOS>MOLECULE
ED8
   62    66     1     0     0
SMALL
No Charge or Current Charge


@<TRIPOS>ATOM
      1 C01          6.5480    -4.1950     2.5610 c3         1 ED8       0.152100
      2 N02          6.5170    -2.7960     2.0820 n3         1 ED8      -0.715600
      3 C03          6.9650    -2.6720     0.6690 c6         1 ED8       0.167800
      4 C04          7.0350    -1.1930     0.2300 c6         1 ED8      -0.093400
      5 C05          5.6720    -0.4970     0.4280 c6         1 ED8       0.177300
      6 O06          5.7920     0.8970     0.0690 os         1 ED8      -0.346100
      7 C07          4.6900     1.7180    -0.0930 ca         1 ED8       0.177100
      8 C08          4.9300     3.1020    -0.2070 ca         1 ED8      -0.162000
      9 C09          3.8600     4.0080    -0.3530 ca         1 ED8      -0.010000
     10 C10          2.5530     3.5050    -0.4070 ca         1 ED8       0.033400
     11 N11          1.3840     4.2440    -0.5040 nc         1 ED8      -0.548100
     12 C12          0.4290     3.2900    -0.4920 cd         1 ED8       0.426700
     13 N13          0.9510     1.9830    -0.4130 na         1 ED8      -0.084400
     14 C14          0.2480     0.7780    -0.5670 cc         1 ED8      -0.077200
     15 C15         -1.1170     0.7870    -0.4220 cd         1 ED8      -0.222000
     16 C16         -1.6470    -0.5060    -0.7130 cd         1 ED8       0.196100
     17 O17         -2.9780    -0.8130    -0.6360 os         1 ED8      -0.298100
     18 C18         -3.9440     0.1860    -0.2630 c3         1 ED8       0.198900
     19 C19         -5.3590    -0.4200    -0.2620 ca         1 ED8      -0.044300
     20 C20         -5.6600    -1.4430    -1.1910 ca         1 ED8      -0.088000
     21 C21         -6.9320    -2.0300    -1.2350 ca         1 ED8      -0.080000
     22 C22         -7.9290    -1.5990    -0.3520 ca         1 ED8      -0.113000
     23 C23         -7.6570    -0.5760     0.5670 ca         1 ED8      -0.067000
     24 C24         -6.3810     0.0360     0.6250 ca         1 ED8      -0.191300
     25 C25         -6.1320     1.1710     1.6410 c3         1 ED8       0.352300
     26 F26         -5.2790     0.7860     2.6170 f          1 ED8      -0.115000
     27 F27         -5.6030     2.2700     1.0560 f          1 ED8      -0.115000
     28 F28         -7.2610     1.5840     2.2620 f          1 ED8      -0.115000
     29 C29         -0.7170    -1.4500    -1.0950 cc         1 ED8      -0.354600
     30 C30         -1.0000    -2.8510    -1.4490 c          1 ED8       0.655700
     31 N31          0.0760    -3.5850    -1.7920 nt         1 ED8      -0.605000
     32 O32         -2.1020    -3.3700    -1.4530 o          1 ED8      -0.584100
     33 S33          0.9080    -0.7540    -1.1190 ss         1 ED8       0.257000
     34 C34          2.3170     2.1540    -0.3420 ca         1 ED8      -0.033200
     35 C35          3.3620     1.2290    -0.1570 ca         1 ED8      -0.217000
     36 C36          5.2190    -0.6620     1.9000 c6         1 ED8      -0.093400
     37 C37          5.1930    -2.1540     2.2990 c6         1 ED8       0.167800
     38 H01          7.5530    -4.6220     2.4480 h1         1 ED8       0.032033
     39 H01A         6.2760    -4.2480     3.6240 h1         1 ED8       0.032033
     40 H01B         5.8440    -4.8200     1.9940 h1         1 ED8       0.032033
     41 H03          7.9600    -3.1250     0.5440 h1         1 ED8       0.032450
     42 H03A         6.2770    -3.2140     0.0030 h1         1 ED8       0.032450
     43 H04          7.8090    -0.6740     0.8110 hc         1 ED8       0.063450
     44 H04A         7.3360    -1.1350    -0.8240 hc         1 ED8       0.063450
     45 H05          4.9510    -0.9820    -0.2460 h1         1 ED8       0.038700
     46 H08          5.9490     3.4760    -0.1630 ha         1 ED8       0.132000
     47 H09          4.0430     5.0780    -0.4150 ha         1 ED8       0.135000
     48 H12         -0.6330     3.4750    -0.5850 h5         1 ED8       0.069800
     49 H15         -1.7090     1.6390    -0.1120 ha         1 ED8       0.156000
     50 H18         -3.6940     0.5730     0.7300 h1         1 ED8       0.058700
     51 H18A        -3.9210     1.0240    -0.9720 h1         1 ED8       0.058700
     52 H20         -4.9010    -1.7930    -1.8890 ha         1 ED8       0.157000
     53 H21         -7.1440    -2.8190    -1.9530 ha         1 ED8       0.124000
     54 H22         -8.9160    -2.0550    -0.3830 ha         1 ED8       0.123000
     55 H23         -8.4570    -0.2630     1.2360 ha         1 ED8       0.131000
     56 HN31         0.9940    -3.1710    -1.7960 hn         1 ED8       0.309500
     57 HN3A        -0.0530    -4.5530    -2.0460 hn         1 ED8       0.309500
     58 H35          3.1530     0.1740    -0.0500 ha         1 ED8       0.127000
     59 H36          5.9050    -0.1180     2.5630 hc         1 ED8       0.063450
     60 H36A         4.2240    -0.2280     2.0550 hc         1 ED8       0.063450
     61 H37          4.4180    -2.6700     1.7120 h1         1 ED8       0.032450
     62 H37A         4.9020    -2.2300     3.3570 h1         1 ED8       0.032450
@<TRIPOS>BOND
     1     1     2 1   
     2     1    38 1   
     3     1    39 1   
     4     1    40 1   
     5     2     3 1   
     6     2    37 1   
     7     3     4 1   
     8     3    41 1   
     9     3    42 1   
    10     4     5 1   
    11     4    43 1   
    12     4    44 1   
    13     5     6 1   
    14     5    36 1   
    15     5    45 1   
    16     6     7 1   
    17     7     8 ar  
    18     7    35 ar  
    19     8     9 ar  
    20     8    46 1   
    21     9    10 ar  
    22     9    47 1   
    23    10    11 1   
    24    10    34 ar  
    25    11    12 2   
    26    12    13 1   
    27    12    48 1   
    28    13    14 1   
    29    13    34 1   
    30    14    15 2   
    31    14    33 1   
    32    15    16 1   
    33    15    49 1   
    34    16    17 1   
    35    16    29 2   
    36    17    18 1   
    37    18    19 1   
    38    18    50 1   
    39    18    51 1   
    40    19    20 ar  
    41    19    24 ar  
    42    20    21 ar  
    43    20    52 1   
    44    21    22 ar  
    45    21    53 1   
    46    22    23 ar  
    47    22    54 1   
    48    23    24 ar  
    49    23    55 1   
    50    24    25 1   
    51    25    26 1   
    52    25    27 1   
    53    25    28 1   
    54    29    30 1   
    55    29    33 1   
    56    30    31 1   
    57    30    32 2   
    58    31    56 1   
    59    31    57 1   
    60    34    35 ar  
    61    35    58 1   
    62    36    37 1   
    63    36    59 1   
    64    36    60 1   
    65    37    61 1   
    66    37    62 1   
@<TRIPOS>SUBSTRUCTURE
     1 ED8         1 TEMP              0 ****  ****    0 ROOT
