@<TRIPOS>MOLECULE
ED9
   85    87     1     0     0
SMALL
No Charge or Current Charge


@<TRIPOS>ATOM
      1 O2          -6.9440    -1.7160    -2.1840 oh         1 ED9      -0.709000
      2 O3          10.1920     1.1780     0.0150 oh         1 ED9      -0.660000
      3 C1          -4.6410     1.1170    -0.9400 c6         1 ED9       0.180500
      4 C2          -5.9960     0.4300    -1.3310 c6         1 ED9       0.187300
      5 C3          -5.7250    -1.0360    -1.8150 c6         1 ED9       0.180300
      6 C4          -4.9830    -1.8460    -0.7170 c6         1 ED9      -0.069200
      7 C5          -3.6930    -1.1400    -0.2690 ce         1 ED9      -0.061200
      8 C6          -2.5140    -1.8260    -0.1830 cf         1 ED9      -0.168000
      9 C7          -1.2200    -1.2630     0.2130 cf         1 ED9      -0.190000
     10 C8          -0.0650    -1.9390     0.4730 c2         1 ED9      -0.079400
     11 C9           0.0640    -3.4690     0.4510 c6         1 ED9      -0.042200
     12 C10         -3.8930     0.2750     0.1030 ce         1 ED9      -0.112200
     13 C11          1.2690    -3.9400    -0.4020 c6         1 ED9      -0.071400
     14 C12          2.5790    -3.1810    -0.0490 c6         1 ED9      -0.063400
     15 C13          2.3940    -1.6260    -0.1030 c5         1 ED9      -0.035000
     16 C14          1.2460    -1.2500     0.8970 c5         1 ED9      -0.036500
     17 C15          1.2670     0.2990     0.8530 c5         1 ED9      -0.070400
     18 C16          2.7970     0.6060     0.8720 c5         1 ED9      -0.077400
     19 C17          3.5350    -0.7620     0.5790 c5         1 ED9      -0.054700
     20 C18          2.1370    -1.2070    -1.5930 c3         1 ED9      -0.079100
     21 C19         -3.4950     0.7970     1.2850 c2         1 ED9      -0.291000
     22 C20          4.9160    -0.5690    -0.1540 c3         1 ED9      -0.046700
     23 C21          5.5910    -1.9000    -0.5780 c3         1 ED9      -0.087100
     24 C22          5.8910     0.3060     0.6990 c3         1 ED9      -0.077400
     25 C23          7.1750     0.7900    -0.0240 c3         1 ED9      -0.071400
     26 C24          7.9870     1.8080     0.8220 c3         1 ED9      -0.102400
     27 C25          9.3310     2.3010     0.2040 c3         1 ED9       0.184000
     28 C26         10.0390     3.2700     1.1790 c3         1 ED9      -0.100100
     29 C27          9.1310     2.9840    -1.1700 c3         1 ED9      -0.100100
     30 O1          -3.7860     1.2900    -2.0800 oh         1 ED9      -0.717000
     31 O4          -6.9580     0.4360    -0.2360 os         1 ED9      -0.442000
     32 C28         -7.4440     1.7100     0.2180 c3         1 ED9       0.164600
     33 C29         -8.5230     1.4420     1.2810 c3         1 ED9      -0.087400
     34 C30         -9.1260     2.7400     1.8480 c3         1 ED9       0.165600
     35 O5         -10.1200     2.4230     2.8280 oh         1 ED9      -0.658000
     36 H1          -6.6840    -2.6020    -2.5250 ho         1 ED9       0.501000
     37 H2          10.2440     0.7130     0.8770 ho         1 ED9       0.438000
     38 H3          -4.8560     2.1070    -0.5130 h1         1 ED9       0.038700
     39 H4          -6.4370     0.9890    -2.1690 h1         1 ED9       0.060700
     40 H5          -5.0640    -0.9800    -2.6930 h1         1 ED9       0.052700
     41 H6          -5.6380    -1.9800     0.1550 hc         1 ED9       0.059200
     42 H7          -4.7590    -2.8540    -1.0910 hc         1 ED9       0.059200
     43 H8          -2.5410    -2.8770    -0.4640 ha         1 ED9       0.169000
     44 H9          -1.2140    -0.1790     0.3000 ha         1 ED9       0.173000
     45 H10          0.2020    -3.8190     1.4830 hc         1 ED9       0.046200
     46 H11         -0.8400    -3.9700     0.0920 hc         1 ED9       0.046200
     47 H12          1.4200    -5.0190    -0.2580 hc         1 ED9       0.040700
     48 H13          1.0350    -3.8120    -1.4670 hc         1 ED9       0.040700
     49 H14          2.9070    -3.4820     0.9560 hc         1 ED9       0.041200
     50 H15          3.3590    -3.5160    -0.7390 hc         1 ED9       0.041200
     51 H16          1.4900    -1.5850     1.9140 hc         1 ED9       0.052700
     52 H17          0.8070     0.7050    -0.0540 hc         1 ED9       0.043200
     53 H18          0.7440     0.7440     1.7070 hc         1 ED9       0.043200
     54 H19          3.0370     1.3700     0.1240 hc         1 ED9       0.040700
     55 H20          3.1040     1.0140     1.8420 hc         1 ED9       0.040700
     56 H21          3.7940    -1.2280     1.5380 hc         1 ED9       0.043700
     57 H22          1.1600    -1.5450    -1.9550 hc         1 ED9       0.034700
     58 H23          2.1700    -0.1220    -1.7390 hc         1 ED9       0.034700
     59 H24          2.8960    -1.6320    -2.2600 hc         1 ED9       0.034700
     60 H25         -2.9890     0.1880     2.0340 ha         1 ED9       0.168000
     61 H26         -3.6710     1.8410     1.5440 ha         1 ED9       0.168000
     62 H27          4.7260    -0.0100    -1.0800 hc         1 ED9       0.046700
     63 H28          5.6360    -2.6030     0.2620 hc         1 ED9       0.033700
     64 H29          5.0450    -2.3630    -1.4040 hc         1 ED9       0.033700
     65 H30          6.6090    -1.7480    -0.9480 hc         1 ED9       0.033700
     66 H31          5.3650     1.2020     1.0470 hc         1 ED9       0.035700
     67 H32          6.1740    -0.2510     1.6010 hc         1 ED9       0.035700
     68 H33          7.8170    -0.0650    -0.2570 hc         1 ED9       0.046700
     69 H34          7.3520     2.6810     1.0170 hc         1 ED9       0.038700
     70 H35          9.4290     4.1660     1.3470 hc         1 ED9       0.041200
     71 H36         10.2150     2.7940     2.1510 hc         1 ED9       0.041200
     72 H37         11.0080     3.5920     0.7790 hc         1 ED9       0.041200
     73 H38          8.4200     3.8150    -1.0910 hc         1 ED9       0.041200
     74 H39         10.0800     3.3860    -1.5470 hc         1 ED9       0.041200
     75 H40          8.7520     2.2780    -1.9180 hc         1 ED9       0.041200
     76 H41         -2.8800     1.4130    -1.7170 ho         1 ED9       0.509000
     77 H42         -6.6390     2.3050     0.6660 h1         1 ED9       0.018700
     78 H43         -7.8800     2.2780    -0.6150 h1         1 ED9       0.018700
     79 H44         -9.3210     0.8350     0.8380 hc         1 ED9       0.067200
     80 H45         -8.0840     0.8600     2.1000 hc         1 ED9       0.067200
     81 H46         -8.3280     3.3450     2.2990 h1         1 ED9       0.014700
     82 H47         -9.5720     3.3210     1.0300 h1         1 ED9       0.014700
     83 H48        -10.4760     3.2770     3.1600 ho         1 ED9       0.442000
     84 H49          6.8870     1.2510    -0.9760 hc         1 ED9       0.046700
     85 H50          8.1920     1.3570     1.8020 hc         1 ED9       0.038700
@<TRIPOS>BOND
     1     1     5 1   
     2     1    36 1   
     3     2    27 1   
     4     2    37 1   
     5     3     4 1   
     6     3    12 1   
     7     3    30 1   
     8     3    38 1   
     9     4     5 1   
    10     4    31 1   
    11     4    39 1   
    12     5     6 1   
    13     5    40 1   
    14     6     7 1   
    15     6    41 1   
    16     6    42 1   
    17     7     8 2   
    18     7    12 1   
    19     8     9 1   
    20     8    43 1   
    21     9    10 2   
    22     9    44 1   
    23    10    11 1   
    24    10    16 1   
    25    11    13 1   
    26    11    45 1   
    27    11    46 1   
    28    12    21 2   
    29    13    14 1   
    30    13    47 1   
    31    13    48 1   
    32    14    15 1   
    33    14    49 1   
    34    14    50 1   
    35    15    16 1   
    36    15    19 1   
    37    15    20 1   
    38    16    17 1   
    39    16    51 1   
    40    17    18 1   
    41    17    52 1   
    42    17    53 1   
    43    18    19 1   
    44    18    54 1   
    45    18    55 1   
    46    19    22 1   
    47    19    56 1   
    48    20    57 1   
    49    20    58 1   
    50    20    59 1   
    51    21    60 1   
    52    21    61 1   
    53    22    23 1   
    54    22    24 1   
    55    22    62 1   
    56    23    63 1   
    57    23    64 1   
    58    23    65 1   
    59    24    25 1   
    60    24    66 1   
    61    24    67 1   
    62    25    26 1   
    63    25    68 1   
    64    25    84 1   
    65    26    27 1   
    66    26    69 1   
    67    26    85 1   
    68    27    28 1   
    69    27    29 1   
    70    28    70 1   
    71    28    71 1   
    72    28    72 1   
    73    29    73 1   
    74    29    74 1   
    75    29    75 1   
    76    30    76 1   
    77    31    32 1   
    78    32    33 1   
    79    32    77 1   
    80    32    78 1   
    81    33    34 1   
    82    33    79 1   
    83    33    80 1   
    84    34    35 1   
    85    34    81 1   
    86    34    82 1   
    87    35    83 1   
@<TRIPOS>SUBSTRUCTURE
     1 ED9         1 TEMP              0 ****  ****    0 ROOT
