@<TRIPOS>MOLECULE
ED9
   85    87     1     0     0
SMALL
abcg2


@<TRIPOS>ATOM
      1 O2          -6.7120    -1.4770    -2.2040 oh         1 ED9      -0.709000
      2 O3          10.0490     0.9680    -0.2390 oh         1 ED9      -0.660000
      3 C1          -4.5220     1.1730    -0.7510 c6         1 ED9       0.180500
      4 C2          -5.8060     0.4920    -1.2410 c6         1 ED9       0.187300
      5 C3          -5.5050    -0.9140    -1.7450 c6         1 ED9       0.180300
      6 C4          -4.8540    -1.7580    -0.6460 c6         1 ED9      -0.069200
      7 C5          -3.6210    -1.0850    -0.1030 ce         1 ED9      -0.061200
      8 C6          -2.4470    -1.7350    -0.0250 cf         1 ED9      -0.168000
      9 C7          -1.1730    -1.1790     0.3870 cf         1 ED9      -0.190000
     10 C8          -0.0420    -1.8740     0.5950 c2         1 ED9      -0.079400
     11 C9           0.0870    -3.3700     0.5060 c6         1 ED9      -0.042200
     12 C10         -3.8340     0.3210     0.2880 ce         1 ED9      -0.112200
     13 C11          1.2560    -3.7960    -0.3890 c6         1 ED9      -0.071400
     14 C12          2.5610    -3.0850    -0.0350 c6         1 ED9      -0.063400
     15 C13          2.3940    -1.5640    -0.0270 c5         1 ED9      -0.035000
     16 C14          1.2550    -1.2300     0.9700 c5         1 ED9      -0.036500
     17 C15          1.3520     0.2760     1.1550 c5         1 ED9      -0.070400
     18 C16          2.8660     0.5540     1.0840 c5         1 ED9      -0.077400
     19 C17          3.5530    -0.7550     0.6080 c5         1 ED9      -0.054700
     20 C18          2.0700    -1.0420    -1.4280 c3         1 ED9      -0.079100
     21 C19         -3.4830     0.8310     1.4680 c2         1 ED9      -0.291000
     22 C20          4.8120    -0.4790    -0.2290 c3         1 ED9      -0.046700
     23 C21          5.4620    -1.7490    -0.7750 c3         1 ED9      -0.087100
     24 C22          5.8170     0.3300     0.6040 c3         1 ED9      -0.077400
     25 C23          7.0570     0.8030    -0.1470 c3         1 ED9      -0.071400
     26 C24          7.9360     1.6940     0.7240 c3         1 ED9      -0.102400
     27 C25          9.2790     2.1140     0.1090 c3         1 ED9       0.184000
     28 C26         10.0480     2.9660     1.1180 c3         1 ED9      -0.100100
     29 C27          9.0800     2.8970    -1.1820 c3         1 ED9      -0.100100
     30 O1          -3.6970     1.3610    -1.8820 oh         1 ED9      -0.717000
     31 O4          -6.7240     0.3950    -0.1810 os         1 ED9      -0.442000
     32 C28         -7.5500     1.5230    -0.0100 c3         1 ED9       0.164600
     33 C29         -8.3780     1.3320     1.2450 c3         1 ED9      -0.087400
     34 C30         -9.3320     2.4910     1.4590 c3         1 ED9       0.165600
     35 O5         -10.0530     2.2690     2.6510 oh         1 ED9      -0.658000
     36 H1          -6.5050    -2.3100    -2.6380 ho         1 ED9       0.501000
     37 H2          10.1840     0.4450     0.5590 ho         1 ED9       0.438000
     38 H3          -4.7830     2.1400    -0.2990 h1         1 ED9       0.038700
     39 H4          -6.2290     1.0840    -2.0670 h1         1 ED9       0.060700
     40 H5          -4.7870    -0.8200    -2.5690 h1         1 ED9       0.052700
     41 H6          -5.5820    -1.9100     0.1580 hc         1 ED9       0.059200
     42 H7          -4.6010    -2.7450    -1.0430 hc         1 ED9       0.059200
     43 H8          -2.4520    -2.7740    -0.3410 ha         1 ED9       0.169000
     44 H9          -1.1430    -0.1040     0.5230 ha         1 ED9       0.173000
     45 H10          0.2700    -3.7520     1.5180 hc         1 ED9       0.046200
     46 H11         -0.8320    -3.8480     0.1640 hc         1 ED9       0.046200
     47 H12          1.3920    -4.8770    -0.3070 hc         1 ED9       0.040700
     48 H13          0.9990    -3.6020    -1.4340 hc         1 ED9       0.040700
     49 H14          2.8900    -3.4060     0.9610 hc         1 ED9       0.041200
     50 H15          3.3390    -3.4000    -0.7310 hc         1 ED9       0.041200
     51 H16          1.5650    -1.6950     1.9210 hc         1 ED9       0.052700
     52 H17          0.8250     0.8050     0.3580 hc         1 ED9       0.043200
     53 H18          0.9070     0.6040     2.0960 hc         1 ED9       0.043200
     54 H19          3.0750     1.3680     0.3850 hc         1 ED9       0.040700
     55 H20          3.2580     0.8690     2.0510 hc         1 ED9       0.040700
     56 H21          3.8690    -1.3170     1.4980 hc         1 ED9       0.043700
     57 H22          1.0810    -1.3540    -1.7650 hc         1 ED9       0.034700
     58 H23          2.0920     0.0480    -1.4760 hc         1 ED9       0.034700
     59 H24          2.7920    -1.4120    -2.1590 hc         1 ED9       0.034700
     60 H25         -3.0040     0.2350     2.2340 ha         1 ED9       0.168000
     61 H26         -3.6820     1.8680     1.7100 ha         1 ED9       0.168000
     62 H27          4.5140     0.1440    -1.0830 hc         1 ED9       0.046700
     63 H28          5.6620    -2.4660     0.0250 hc         1 ED9       0.033700
     64 H29          4.8330    -2.2430    -1.5140 hc         1 ED9       0.033700
     65 H30          6.4090    -1.5310    -1.2680 hc         1 ED9       0.033700
     66 H31          5.3180     1.2130     1.0140 hc         1 ED9       0.035700
     67 H32          6.1240    -0.2690     1.4710 hc         1 ED9       0.035700
     68 H33          7.6440    -0.0510    -0.4910 hc         1 ED9       0.046700
     69 H34          7.3830     2.5970     1.0010 hc         1 ED9       0.038700
     70 H35          9.5000     3.8760     1.3670 hc         1 ED9       0.041200
     71 H36         10.2130     2.4190     2.0500 hc         1 ED9       0.041200
     72 H37         11.0210     3.2590     0.7190 hc         1 ED9       0.041200
     73 H38          8.4610     3.7760    -1.0020 hc         1 ED9       0.041200
     74 H39         10.0370     3.2400    -1.5810 hc         1 ED9       0.041200
     75 H40          8.5910     2.2960    -1.9490 hc         1 ED9       0.041200
     76 H41         -2.8720     1.7600    -1.5900 ho         1 ED9       0.509000
     77 H42         -6.9580     2.4440     0.0740 h1         1 ED9       0.018700
     78 H43         -8.2050     1.6480    -0.8840 h1         1 ED9       0.018700
     79 H44         -8.9460     0.4010     1.1710 hc         1 ED9       0.067200
     80 H45         -7.7110     1.2430     2.1080 hc         1 ED9       0.067200
     81 H46         -8.7620     3.4290     1.5050 h1         1 ED9       0.014700
     82 H47        -10.0040     2.5740     0.5950 h1         1 ED9       0.014700
     83 H48        -10.6560     3.0070     2.7770 ho         1 ED9       0.442000
     84 H49          6.7450     1.3440    -1.0470 hc         1 ED9       0.046700
     85 H50          8.1410     1.1760     1.6700 hc         1 ED9       0.038700
@<TRIPOS>BOND
     1     1     5 1   
     2     1    36 1   
     3     2    27 1   
     4     2    37 1   
     5     3     4 1   
     6     3    12 1   
     7     3    30 1   
     8     3    38 1   
     9     4     5 1   
    10     4    31 1   
    11     4    39 1   
    12     5     6 1   
    13     5    40 1   
    14     6     7 1   
    15     6    41 1   
    16     6    42 1   
    17     7     8 2   
    18     7    12 1   
    19     8     9 1   
    20     8    43 1   
    21     9    10 2   
    22     9    44 1   
    23    10    11 1   
    24    10    16 1   
    25    11    13 1   
    26    11    45 1   
    27    11    46 1   
    28    12    21 2   
    29    13    14 1   
    30    13    47 1   
    31    13    48 1   
    32    14    15 1   
    33    14    49 1   
    34    14    50 1   
    35    15    16 1   
    36    15    19 1   
    37    15    20 1   
    38    16    17 1   
    39    16    51 1   
    40    17    18 1   
    41    17    52 1   
    42    17    53 1   
    43    18    19 1   
    44    18    54 1   
    45    18    55 1   
    46    19    22 1   
    47    19    56 1   
    48    20    57 1   
    49    20    58 1   
    50    20    59 1   
    51    21    60 1   
    52    21    61 1   
    53    22    23 1   
    54    22    24 1   
    55    22    62 1   
    56    23    63 1   
    57    23    64 1   
    58    23    65 1   
    59    24    25 1   
    60    24    66 1   
    61    24    67 1   
    62    25    26 1   
    63    25    68 1   
    64    25    84 1   
    65    26    27 1   
    66    26    69 1   
    67    26    85 1   
    68    27    28 1   
    69    27    29 1   
    70    28    70 1   
    71    28    71 1   
    72    28    72 1   
    73    29    73 1   
    74    29    74 1   
    75    29    75 1   
    76    30    76 1   
    77    31    32 1   
    78    32    33 1   
    79    32    77 1   
    80    32    78 1   
    81    33    34 1   
    82    33    79 1   
    83    33    80 1   
    84    34    35 1   
    85    34    81 1   
    86    34    82 1   
    87    35    83 1   
@<TRIPOS>SUBSTRUCTURE
     1 ED9         1 TEMP              0 ****  ****    0 ROOT
