@<TRIPOS>MOLECULE
EDB
   49    52     1     0     0
SMALL
abcg2


@<TRIPOS>ATOM
      1 C1          -4.6420    -0.9670     1.2020 ca         1 EDB      -0.142000
      2 C2          -6.0060    -0.9870     1.4330 ca         1 EDB      -0.072000
      3 C3          -6.7920     0.1370     1.2400 ca         1 EDB      -0.140000
      4 C4          -6.1810     1.3000     0.8040 ca         1 EDB       0.152000
      5 C5          -4.8140     1.3380     0.5550 ca         1 EDB       0.041000
      6 C6          -4.0130     0.1990     0.7500 ca         1 EDB       0.034000
      7 C13          2.1020    -2.5330    -0.2750 cc         1 EDB       0.187800
      8 C14          0.7680    -2.3460    -0.0490 cd         1 EDB      -0.394600
      9 C15          0.5230    -0.9410    -0.1130 cd         1 EDB       0.784500
     10 N16          1.7330    -0.3690    -0.3940 na         1 EDB      -0.518200
     11 N17          2.7110    -1.3260    -0.4140 na         1 EDB      -0.497000
     12 C23          2.1030     0.9900    -0.3430 ca         1 EDB       0.282000
     13 C24          3.2440     1.3570     0.3590 ca         1 EDB      -0.097000
     14 C25          3.6430     2.6880     0.3980 ca         1 EDB      -0.062300
     15 C26          2.8790     3.6420    -0.2640 ca         1 EDB      -0.102000
     16 C27          1.7360     3.2690    -0.9600 ca         1 EDB      -0.101000
     17 C28          1.3430     1.9420    -1.0140 ca         1 EDB      -0.078000
     18 N36         -0.5170    -0.1650     0.0770 ne         1 EDB      -0.816100
     19 C38         -1.7270    -0.7160     0.3400 c          1 EDB       0.775500
     20 O40         -2.0270    -1.9010     0.4150 o          1 EDB      -0.648100
     21 N42         -2.6580     0.2960     0.5140 ns         1 EDB      -0.136000
     22 C45          4.6170    -5.4810    -0.3580 cc         1 EDB      -0.230000
     23 S46          4.5640    -3.7910    -0.1190 ss         1 EDB       0.244000
     24 C47          2.8550    -3.7600    -0.3530 cc         1 EDB      -0.215800
     25 C48          2.3660    -5.0150    -0.5940 cd         1 EDB      -0.078000
     26 C49          3.3790    -6.0020    -0.5950 cd         1 EDB      -0.137000
     27 C56          4.8890     3.0790     1.1350 c3         1 EDB      -0.117100
     28 C58          6.1450     2.8240     0.3140 c          1 EDB       0.607100
     29 O60          6.2290     1.8850    -0.4620 o          1 EDB      -0.604100
     30 N62          7.1440     3.6880     0.5380 nt         1 EDB      -0.610000
     31 CL64        -4.0920     2.8030    -0.0090 cl         1 EDB      -0.189000
     32 CL66        -7.1410     2.7120     0.5610 cl         1 EDB      -0.185000
     33 H1          -4.0590    -1.8550     1.3740 ha         1 EDB       0.154000
     34 H2          -6.4660    -1.9030     1.7800 ha         1 EDB       0.119000
     35 H3          -7.8560     0.1160     1.4250 ha         1 EDB       0.130000
     36 HN17         3.4390    -1.1800    -1.1030 hn         1 EDB       0.517000
     37 H24          3.8140     0.6110     0.8970 ha         1 EDB       0.132000
     38 H26          3.1750     4.6840    -0.2360 ha         1 EDB       0.114000
     39 H27          1.1500     4.0180    -1.4750 ha         1 EDB       0.121000
     40 H28          0.4610     1.6530    -1.5650 ha         1 EDB       0.142000
     41 HN42        -2.2840     1.2190     0.3580 hn         1 EDB       0.173000
     42 H45          5.5590    -6.0050    -0.3030 h4         1 EDB       0.156000
     43 H48          1.3200    -5.2200    -0.7770 ha         1 EDB       0.147000
     44 H49          3.1990    -7.0530    -0.7670 ha         1 EDB       0.142000
     45 H56          4.8370     4.1220     1.4500 hc         1 EDB       0.065700
     46 H56A         4.9860     2.4850     2.0500 hc         1 EDB       0.065700
     47 HN62         7.0470     4.4600     1.1740 hn         1 EDB       0.314500
     48 HN6A         8.0360     3.5670     0.0860 hn         1 EDB       0.314500
     49 H14          0.0480    -3.1090     0.1810 ha         1 EDB       0.253000
@<TRIPOS>BOND
     1     1     2 ar  
     2     1     6 ar  
     3     1    33 1   
     4     2     3 ar  
     5     2    34 1   
     6     3     4 ar  
     7     3    35 1   
     8     4     5 ar  
     9     4    32 1   
    10     5     6 ar  
    11     5    31 1   
    12     6    21 1   
    13     7     8 2   
    14     7    11 1   
    15     7    24 1   
    16     8     9 1   
    17     8    49 1   
    18     9    10 1   
    19     9    18 2   
    20    10    11 1   
    21    10    12 1   
    22    11    36 1   
    23    12    13 ar  
    24    12    17 ar  
    25    13    14 ar  
    26    13    37 1   
    27    14    15 ar  
    28    14    27 1   
    29    15    16 ar  
    30    15    38 1   
    31    16    17 ar  
    32    16    39 1   
    33    17    40 1   
    34    18    19 1   
    35    19    20 2   
    36    19    21 1   
    37    21    41 1   
    38    22    23 1   
    39    22    26 2   
    40    22    42 1   
    41    23    24 1   
    42    24    25 2   
    43    25    26 1   
    44    25    43 1   
    45    26    44 1   
    46    27    28 1   
    47    27    45 1   
    48    27    46 1   
    49    28    29 2   
    50    28    30 1   
    51    30    47 1   
    52    30    48 1   
@<TRIPOS>SUBSTRUCTURE
     1 EDB         1 TEMP              0 ****  ****    0 ROOT
