@<TRIPOS>MOLECULE
EDB
   49    52     1     0     0
SMALL
No Charge or Current Charge


@<TRIPOS>ATOM
      1 C1          -3.5710     0.7180    -0.0020 ca         1 EDB      -0.142000
      2 C2          -4.4320     1.7890    -0.2960 ca         1 EDB      -0.072000
      3 C3          -4.2580     3.0270     0.3390 ca         1 EDB      -0.140000
      4 C4          -3.2230     3.1990     1.2710 ca         1 EDB       0.152000
      5 C5          -2.3580     2.1260     1.5740 ca         1 EDB       0.041000
      6 C6          -2.5270     0.8750     0.9390 ca         1 EDB       0.034000
      7 C13          2.5420    -3.2320    -0.2720 cc         1 EDB       0.187800
      8 C14          1.6320    -3.2170     0.7470 cd         1 EDB      -0.394600
      9 C15          0.6390    -2.2720     0.4720 cd         1 EDB       0.784500
     10 N16          0.9360    -1.6690    -0.7490 na         1 EDB      -0.518200
     11 N17          2.1220    -2.2950    -1.2050 na         1 EDB      -0.497000
     12 C23          0.8880    -0.2720    -0.6640 ca         1 EDB       0.282000
     13 C24          1.7080     0.4410     0.2330 ca         1 EDB      -0.097000
     14 C25          1.6140     1.8440     0.3280 ca         1 EDB      -0.062300
     15 C26          0.7010     2.5330    -0.4930 ca         1 EDB      -0.102000
     16 C27         -0.1040     1.8300    -1.4040 ca         1 EDB      -0.101000
     17 C28         -0.0070     0.4310    -1.4910 ca         1 EDB      -0.078000
     18 N36         -0.3150    -1.9820     1.3060 ne         1 EDB      -0.816100
     19 C38         -1.4780    -1.4590     0.7980 c          1 EDB       0.775500
     20 O40         -2.2530    -2.0620     0.0740 o          1 EDB      -0.648100
     21 N42         -1.6080    -0.1620     1.2490 ns         1 EDB      -0.136000
     22 C45          5.8040    -5.2770    -1.0230 cc         1 EDB      -0.230000
     23 S46          4.8210    -4.0130    -1.7590 ss         1 EDB       0.244000
     24 C47          3.7040    -4.0600    -0.3970 cc         1 EDB      -0.215800
     25 C48          4.0870    -4.9890     0.5410 cd         1 EDB      -0.078000
     26 C49          5.2780    -5.6770     0.1810 cd         1 EDB      -0.137000
     27 C56          2.4880     2.6080     1.3160 c3         1 EDB      -0.117100
     28 C58          3.8180     3.0130     0.6720 c          1 EDB       0.607100
     29 O60          4.7380     2.2340     0.4870 o          1 EDB      -0.604100
     30 N62          3.9340     4.3060     0.2980 nt         1 EDB      -0.610000
     31 Cl64        -1.0490     2.3480     2.7470 cl         1 EDB      -0.189000
     32 Cl66        -3.0280     4.7720     2.0450 cl         1 EDB      -0.185000
     33 H1          -3.7280    -0.2230    -0.5190 ha         1 EDB       0.154000
     34 H2          -5.2330     1.6580    -1.0220 ha         1 EDB       0.119000
     35 H3          -4.9220     3.8560     0.1080 ha         1 EDB       0.130000
     36 HN17         2.4570    -2.1420    -2.1620 hn         1 EDB       0.517000
     37 H24          2.4130    -0.0980     0.8600 ha         1 EDB       0.132000
     38 H26          0.6150     3.6160    -0.4280 ha         1 EDB       0.114000
     39 H27         -0.8080     2.3670    -2.0370 ha         1 EDB       0.121000
     40 H28         -0.6360    -0.1150    -2.1890 ha         1 EDB       0.142000
     41 HN42        -0.8690     0.1190     1.8770 hn         1 EDB       0.173000
     42 H45          6.6920    -5.6270    -1.5340 h4         1 EDB       0.156000
     43 H48          3.5470    -5.1870     1.4620 ha         1 EDB       0.147000
     44 H49          5.7290    -6.4470     0.8010 ha         1 EDB       0.142000
     45 H56          1.9520     3.5040     1.6510 hc         1 EDB       0.065700
     46 H56A         2.7000     1.9740     2.1840 hc         1 EDB       0.065700
     47 HN62         3.1700     4.9470     0.4470 hn         1 EDB       0.314500
     48 HN6A         4.7910     4.6180    -0.1340 hn         1 EDB       0.314500
     49 H14          1.6570    -3.8160     1.6430 ha         1 EDB       0.253000
@<TRIPOS>BOND
     1     1     2 ar  
     2     1     6 ar  
     3     1    33 1   
     4     2     3 ar  
     5     2    34 1   
     6     3     4 ar  
     7     3    35 1   
     8     4     5 ar  
     9     4    32 1   
    10     5     6 ar  
    11     5    31 1   
    12     6    21 1   
    13     7     8 2   
    14     7    11 1   
    15     7    24 1   
    16     8     9 1   
    17     8    49 1   
    18     9    10 1   
    19     9    18 2   
    20    10    11 1   
    21    10    12 1   
    22    11    36 1   
    23    12    13 ar  
    24    12    17 ar  
    25    13    14 ar  
    26    13    37 1   
    27    14    15 ar  
    28    14    27 1   
    29    15    16 ar  
    30    15    38 1   
    31    16    17 ar  
    32    16    39 1   
    33    17    40 1   
    34    18    19 1   
    35    19    20 2   
    36    19    21 1   
    37    21    41 1   
    38    22    23 1   
    39    22    26 2   
    40    22    42 1   
    41    23    24 1   
    42    24    25 2   
    43    25    26 1   
    44    25    43 1   
    45    26    44 1   
    46    27    28 1   
    47    27    45 1   
    48    27    46 1   
    49    28    29 2   
    50    28    30 1   
    51    30    47 1   
    52    30    48 1   
@<TRIPOS>SUBSTRUCTURE
     1 EDB         1 TEMP              0 ****  ****    0 ROOT
