@<TRIPOS>MOLECULE
EDD
   54    56     1     0     0
SMALL
bcc


@<TRIPOS>ATOM
      1 C1          -3.0570     0.6830     0.2290 ca         1 EDD       0.142600
      2 C2          -3.9590     1.0800     1.2120 ca         1 EDD      -0.146000
      3 C3          -4.1540     2.4330     1.4370 ca         1 EDD      -0.115000
      4 C4          -3.4410     3.3800     0.7140 ca         1 EDD      -0.108000
      5 C5          -2.5430     2.9820    -0.2700 ca         1 EDD      -0.055300
      6 C6          -2.3710     1.6270    -0.5220 ca         1 EDD      -0.094000
      7 C13         -1.7360     3.9760    -1.0550 c3         1 EDD      -0.117100
      8 C14         -0.2700     3.9260    -0.6510 c          1 EDD       0.672100
      9 N15          0.6020     3.9550    -1.6680 nt         1 EDD      -0.677000
     10 O19          0.0680     3.8760     0.5210 o          1 EDD      -0.591100
     11 N21         -2.8260    -0.6850    -0.0080 na         1 EDD      -0.368800
     12 N23         -3.8270    -1.5930     0.1570 na         1 EDD      -0.460800
     13 C24         -3.3040    -2.8340     0.0840 cc         1 EDD       0.128800
     14 C25         -1.9420    -2.7250    -0.0110 cd         1 EDD      -0.373600
     15 C26         -1.6230    -1.3380    -0.0490 cd         1 EDD       0.786500
     16 C32         -4.1890    -4.0480     0.0940 c3         1 EDD       0.000200
     17 C34         -3.3350    -5.3030     0.2610 c3         1 EDD      -0.086767
     18 C36         -5.1840    -3.9520     1.2580 c3         1 EDD      -0.086767
     19 C38         -4.9540    -4.1220    -1.2360 c3         1 EDD      -0.086767
     20 N40         -0.5230    -0.6190    -0.0610 ne         1 EDD      -0.822100
     21 C42          0.6860    -1.2140    -0.1340 c          1 EDD       0.845500
     22 N43          1.6660    -0.2320    -0.0610 ns         1 EDD      -0.464100
     23 C44          3.0370    -0.3460    -0.1010 ca         1 EDD       0.131600
     24 O48          0.9540    -2.4050    -0.2530 o          1 EDD      -0.652100
     25 C50          3.7170    -1.5310    -0.4060 ca         1 EDD      -0.168000
     26 C51          5.1000    -1.5600    -0.4420 ca         1 EDD      -0.089000
     27 C52          5.8580    -0.4290    -0.1880 ca         1 EDD      -0.163000
     28 C53          5.1980     0.7510     0.1110 ca         1 EDD       0.061400
     29 C54          3.8110     0.8010     0.1590 ca         1 EDD      -0.061600
     30 CL61         3.0190     2.2870     0.5470 cl         1 EDD      -0.082400
     31 CL63         6.1220     2.1720     0.4290 cl         1 EDD      -0.095400
     32 H2          -4.4920     0.3480     1.8060 ha         1 EDD       0.141000
     33 H3          -4.8540     2.7500     2.1990 ha         1 EDD       0.137000
     34 H4          -3.5890     4.4340     0.9140 ha         1 EDD       0.138000
     35 H6          -1.6900     1.3040    -1.2980 ha         1 EDD       0.157000
     36 H13         -1.8550     3.8020    -2.1270 hc         1 EDD       0.063700
     37 H13A        -2.0930     4.9920    -0.8630 hc         1 EDD       0.063700
     38 HN15         0.3030     3.9780    -2.6270 hn         1 EDD       0.316000
     39 HN1A         1.5930     3.9400    -1.4900 hn         1 EDD       0.316000
     40 HN23        -4.7480    -1.3300    -0.1660 hn         1 EDD       0.467800
     41 H25         -1.2340    -3.5310    -0.0260 ha         1 EDD       0.201000
     42 H34         -2.7810    -5.2900     1.2000 hc         1 EDD       0.044033
     43 H34A        -3.9790    -6.1840     0.2700 hc         1 EDD       0.044033
     44 H34B        -2.6210    -5.4250    -0.5550 hc         1 EDD       0.044033
     45 H36         -5.8430    -3.0880     1.1680 hc         1 EDD       0.044033
     46 H36A        -5.8120    -4.8430     1.2730 hc         1 EDD       0.044033
     47 H36B        -4.6680    -3.8870     2.2160 hc         1 EDD       0.044033
     48 H38         -4.2720    -4.1550    -2.0870 hc         1 EDD       0.044033
     49 H38A        -5.5640    -5.0260    -1.2560 hc         1 EDD       0.044033
     50 H38B        -5.6270    -3.2730    -1.3730 hc         1 EDD       0.044033
     51 HN43         1.2880     0.6920     0.0800 hn         1 EDD       0.344500
     52 H50          3.1590    -2.4270    -0.6170 ha         1 EDD       0.173000
     53 H51          5.5990    -2.4890    -0.6830 ha         1 EDD       0.135000
     54 H52          6.9380    -0.4580    -0.2220 ha         1 EDD       0.147000
@<TRIPOS>BOND
     1     1     2 ar  
     2     1     6 ar  
     3     1    11 1   
     4     2     3 ar  
     5     2    32 1   
     6     3     4 ar  
     7     3    33 1   
     8     4     5 ar  
     9     4    34 1   
    10     5     6 ar  
    11     5     7 1   
    12     6    35 1   
    13     7     8 1   
    14     7    36 1   
    15     7    37 1   
    16     8     9 1   
    17     8    10 2   
    18     9    38 1   
    19     9    39 1   
    20    11    12 1   
    21    11    15 1   
    22    12    13 1   
    23    12    40 1   
    24    13    14 2   
    25    13    16 1   
    26    14    15 1   
    27    14    41 1   
    28    15    20 2   
    29    16    17 1   
    30    16    18 1   
    31    16    19 1   
    32    17    42 1   
    33    17    43 1   
    34    17    44 1   
    35    18    45 1   
    36    18    46 1   
    37    18    47 1   
    38    19    48 1   
    39    19    49 1   
    40    19    50 1   
    41    20    21 1   
    42    21    22 1   
    43    21    24 2   
    44    22    23 1   
    45    22    51 1   
    46    23    25 ar  
    47    23    29 ar  
    48    25    26 ar  
    49    25    52 1   
    50    26    27 ar  
    51    26    53 1   
    52    27    28 ar  
    53    27    54 1   
    54    28    29 ar  
    55    28    31 1   
    56    29    30 1   
@<TRIPOS>SUBSTRUCTURE
     1 EDD         1 TEMP              0 ****  ****    0 ROOT
