@<TRIPOS>MOLECULE
EDD
   54    56     1     0     0
SMALL
No Charge or Current Charge


@<TRIPOS>ATOM
      1 C1          -1.9390    -0.1310    -0.0630 ca         1 EDD       0.281000
      2 C2          -2.3150     0.2920     1.2280 ca         1 EDD      -0.128000
      3 C3          -2.1550     1.6360     1.6060 ca         1 EDD      -0.097000
      4 C4          -1.6410     2.5670     0.6880 ca         1 EDD      -0.090000
      5 C5          -1.2830     2.1620    -0.6120 ca         1 EDD      -0.055300
      6 C6          -1.4300     0.8090    -0.9770 ca         1 EDD      -0.076000
      7 C13         -0.7700     3.1850    -1.6210 c3         1 EDD      -0.117100
      8 C14          0.7110     3.4990    -1.3960 c          1 EDD       0.605100
      9 N15          1.5810     2.9140    -2.2460 nt         1 EDD      -0.610000
     10 O19          1.1130     4.2310    -0.5090 o          1 EDD      -0.591100
     11 N21         -2.0950    -1.4600    -0.4750 na         1 EDD      -0.507200
     12 N23         -3.3970    -1.9920    -0.6200 na         1 EDD      -0.516000
     13 C24         -3.5520    -3.1510     0.1460 cc         1 EDD       0.128800
     14 C25         -2.3250    -3.3400     0.7350 cd         1 EDD      -0.423600
     15 C26         -1.4300    -2.3350     0.3650 cd         1 EDD       0.786500
     16 C32         -4.8310    -3.9700     0.2330 c3         1 EDD       0.000200
     17 C34         -4.6440    -5.1900     1.1740 c3         1 EDD      -0.086767
     18 C36         -5.9740    -3.0830     0.7900 c3         1 EDD      -0.086767
     19 C38         -5.2160    -4.4850    -1.1780 c3         1 EDD      -0.086767
     20 N40         -0.2350    -2.2230     0.8540 ne         1 EDD      -0.822100
     21 C42          0.7400    -1.7130     0.0340 c          1 EDD       0.778500
     22 N43          1.2580    -0.5800     0.6230 ns         1 EDD      -0.138000
     23 C44          2.3060     0.3040     0.2530 ca         1 EDD       0.039000
     24 O48          1.0910    -2.2130    -1.0220 o          1 EDD      -0.652100
     25 C50          3.1320     0.0840    -0.8730 ca         1 EDD      -0.150000
     26 C51          4.1750     0.9760    -1.1780 ca         1 EDD      -0.071000
     27 C52          4.4050     2.0940    -0.3630 ca         1 EDD      -0.145000
     28 C53          3.5930     2.3250     0.7580 ca         1 EDD       0.153000
     29 C54          2.5430     1.4350     1.0670 ca         1 EDD       0.030000
     30 Cl61         1.5190     1.7290     2.4820 cl         1 EDD      -0.174000
     31 Cl63         3.9210     3.7340     1.7680 cl         1 EDD      -0.187000
     32 H2          -2.7290    -0.4210     1.9360 ha         1 EDD       0.123000
     33 H3          -2.4390     1.9580     2.6060 ha         1 EDD       0.119000
     34 H4          -1.5300     3.6080     0.9850 ha         1 EDD       0.120000
     35 H6          -1.1610     0.4800    -1.9770 ha         1 EDD       0.139000
     36 H13         -0.9110     2.7920    -2.6350 hc         1 EDD       0.063700
     37 H13A        -1.3420     4.1130    -1.5140 hc         1 EDD       0.063700
     38 HN15         1.2450     2.3070    -2.9790 hn         1 EDD       0.316000
     39 HN1A         2.5690     3.0790    -2.1290 hn         1 EDD       0.316000
     40 HN23        -4.0420    -1.5940    -1.3130 hn         1 EDD       0.523000
     41 H25         -2.0620    -4.1380     1.4130 ha         1 EDD       0.251000
     42 H34         -4.3800    -4.8660     2.1890 hc         1 EDD       0.044033
     43 H34A        -5.5670    -5.7800     1.2400 hc         1 EDD       0.044033
     44 H34B        -3.8490    -5.8510     0.8080 hc         1 EDD       0.044033
     45 H36         -6.1690    -2.2280     0.1320 hc         1 EDD       0.044033
     46 H36A        -6.9060    -3.6540     0.8840 hc         1 EDD       0.044033
     47 H36B        -5.7140    -2.6920     1.7820 hc         1 EDD       0.044033
     48 H38         -4.4090    -5.0970    -1.6000 hc         1 EDD       0.044033
     49 H38A        -6.1240    -5.0990    -1.1390 hc         1 EDD       0.044033
     50 H38B        -5.4030    -3.6520    -1.8660 hc         1 EDD       0.044033
     51 HN43         0.8120    -0.3470     1.4990 hn         1 EDD       0.178000
     52 H50          2.9890    -0.7760    -1.5190 ha         1 EDD       0.155000
     53 H51          4.8080     0.7960    -2.0450 ha         1 EDD       0.117000
     54 H52          5.2150     2.7810    -0.5960 ha         1 EDD       0.129000
@<TRIPOS>BOND
     1     1     2 ar  
     2     1     6 ar  
     3     1    11 1   
     4     2     3 ar  
     5     2    32 1   
     6     3     4 ar  
     7     3    33 1   
     8     4     5 ar  
     9     4    34 1   
    10     5     6 ar  
    11     5     7 1   
    12     6    35 1   
    13     7     8 1   
    14     7    36 1   
    15     7    37 1   
    16     8     9 1   
    17     8    10 2   
    18     9    38 1   
    19     9    39 1   
    20    11    12 1   
    21    11    15 1   
    22    12    13 1   
    23    12    40 1   
    24    13    14 2   
    25    13    16 1   
    26    14    15 1   
    27    14    41 1   
    28    15    20 2   
    29    16    17 1   
    30    16    18 1   
    31    16    19 1   
    32    17    42 1   
    33    17    43 1   
    34    17    44 1   
    35    18    45 1   
    36    18    46 1   
    37    18    47 1   
    38    19    48 1   
    39    19    49 1   
    40    19    50 1   
    41    20    21 1   
    42    21    22 1   
    43    21    24 2   
    44    22    23 1   
    45    22    51 1   
    46    23    25 ar  
    47    23    29 ar  
    48    25    26 ar  
    49    25    52 1   
    50    26    27 ar  
    51    26    53 1   
    52    27    28 ar  
    53    27    54 1   
    54    28    29 ar  
    55    28    31 1   
    56    29    30 1   
@<TRIPOS>SUBSTRUCTURE
     1 EDD         1 TEMP              0 ****  ****    0 ROOT
