@<TRIPOS>MOLECULE
EDE
  113   113     1     0     0
SMALL
No Charge or Current Charge


@<TRIPOS>ATOM
      1 N1          -0.0470     0.6260    -9.0970 ns         1 EDE      -0.493900
      2 C2          -1.3420     0.5220    -8.4070 c3         1 EDE       0.070000
      3 C3          -1.6040    -0.8850    -7.8120 c3         1 EDE       0.065300
      4 C4          -2.9420    -0.8900    -7.0140 c          1 EDE       0.581100
      5 N5          -2.8180    -0.8750    -5.6400 ns         1 EDE      -0.458900
      6 C6          -3.9500    -0.9360    -4.6790 c3         1 EDE       0.018700
      7 C7          -3.6970     0.0290    -3.4900 c          1 EDE       0.577100
      8 N8          -4.8060     0.2960    -2.7090 ns         1 EDE      -0.449900
      9 C9          -4.8260     1.1600    -1.5020 c3         1 EDE      -0.045300
     10 C10         -4.6860     0.3380    -0.1930 c3         1 EDE      -0.074400
     11 C11         -3.3420    -0.4150    -0.0450 c3         1 EDE      -0.080400
     12 C12         -3.2130    -1.1530     1.3130 c3         1 EDE      -0.110400
     13 C13         -1.8380    -1.8380     1.5550 c3         1 EDE       0.132500
     14 C14         -1.7000    -2.4560     2.9970 c3         1 EDE       0.178300
     15 C15         -0.3250    -3.1130     3.2620 c3         1 EDE      -0.183400
     16 C16         -0.3130    -3.8530     4.5970 c          1 EDE       0.609100
     17 N17          0.4630    -3.2860     5.5800 ns         1 EDE      -0.503900
     18 C18          0.6400    -3.8460     6.9390 c3         1 EDE       0.022000
     19 C19          1.5780    -2.9780     7.8110 c          1 EDE       0.588100
     20 N20          1.7870    -3.4580     9.0880 ns         1 EDE      -0.502900
     21 C21          2.6170    -2.8030    10.1030 c3         1 EDE       0.103000
     22 C22          1.8820    -1.6360    10.7920 c3         1 EDE      -0.107400
     23 C23          2.7420    -0.9580    11.8740 c3         1 EDE       0.166800
     24 N24          1.9840     0.1290    12.5150 n7         1 EDE      -0.867400
     25 C25          2.7030     0.8470    13.5820 c3         1 EDE       0.162800
     26 C26          1.8060     1.9460    14.1840 c3         1 EDE      -0.082400
     27 C27          2.5010     2.7350    15.3180 c3         1 EDE      -0.062400
     28 C28          1.6050     3.8390    15.9290 c3         1 EDE      -0.117700
     29 C29          2.2810     4.6020    17.0500 c2         1 EDE       0.611200
     30 C30          1.1760     0.6630    -8.4650 c          1 EDE       0.588100
     31 C31          2.3870     0.6940    -9.3930 c3         1 EDE      -0.200400
     32 C32          3.1150     2.0520    -9.3330 c3         1 EDE       0.227800
     33 N33          2.3500     3.0820   -10.0540 n8         1 EDE      -1.002200
     34 C34          4.5380     1.9840    -9.8910 ca         1 EDE      -0.106300
     35 C35          5.6090     2.5140    -9.1410 ca         1 EDE      -0.062000
     36 C36          6.9240     2.4560    -9.6350 ca         1 EDE      -0.178000
     37 C37          7.1800     1.8710   -10.8840 ca         1 EDE       0.132100
     38 C38          6.1230     1.3450   -11.6400 ca         1 EDE      -0.178000
     39 C39          4.8060     1.4010   -11.1500 ca         1 EDE      -0.062000
     40 O40          8.4510     1.8120   -11.3690 oh         1 EDE      -0.538100
     41 O41          1.2820     0.6450    -7.2480 o          1 EDE      -0.603100
     42 O42         -1.5990    -1.8800    -8.8720 oh         1 EDE      -0.655000
     43 O43         -4.0330    -0.9220    -7.5730 o          1 EDE      -0.629100
     44 O44         -2.6020     0.5300    -3.2580 o          1 EDE      -0.650100
     45 C45         -4.1920    -2.3780    -4.1520 c3         1 EDE       0.132800
     46 N46         -4.4030    -3.3750    -5.2280 n8         1 EDE      -0.997200
     47 C47         -6.1200     2.0300    -1.4840 c          1 EDE       0.717000
     48 O48         -6.0010     3.2370    -1.3240 o          1 EDE      -0.718500
     49 O49         -7.1900     1.4880    -1.7310 o          1 EDE      -0.718500
     50 N50         -1.6030    -2.8450     0.4920 n8         1 EDE      -1.016200
     51 O51         -1.9060    -1.4470     3.9990 oh         1 EDE      -0.650000
     52 O52         -0.9110    -4.9050     4.7710 o          1 EDE      -0.614100
     53 O53          2.1050    -1.9470     7.4090 o          1 EDE      -0.609100
     54 N54          2.1340     4.3370    18.2740 n2         1 EDE      -0.831100
     55 N55          3.0960     5.6130    16.6720 nv         1 EDE      -1.087200
     56 H1          -0.0370     0.6020   -10.1110 hn         1 EDE       0.314500
     57 H21         -2.1420     0.7770    -9.1150 h1         1 EDE       0.071700
     58 H22         -1.3690     1.2670    -7.5990 h1         1 EDE       0.071700
     59 H3          -0.8010    -1.1060    -7.0960 h1         1 EDE       0.092700
     60 H5          -1.8790    -0.8240    -5.2610 hn         1 EDE       0.339500
     61 H6          -4.8620    -0.5860    -5.1800 h1         1 EDE       0.088700
     62 H8          -5.6820    -0.1270    -2.9960 hn         1 EDE       0.333500
     63 H9          -3.9820     1.8600    -1.5600 h1         1 EDE       0.068700
     64 H101        -4.7970     1.0240     0.6560 hc         1 EDE       0.049200
     65 H102        -5.5130    -0.3790    -0.1260 hc         1 EDE       0.049200
     66 H111        -3.2460    -1.1370    -0.8650 hc         1 EDE       0.032700
     67 H112        -2.5170     0.3010    -0.1460 hc         1 EDE       0.032700
     68 H121        -3.3920    -0.4210     2.1090 hc         1 EDE       0.049200
     69 H122        -4.0130    -1.9000     1.3970 hc         1 EDE       0.049200
     70 H13         -1.0560    -1.0710     1.4510 h1         1 EDE       0.051700
     71 H14         -2.4700    -3.2360     3.0960 h1         1 EDE       0.090700
     72 H151        -0.1280    -3.8500     2.4770 hc         1 EDE       0.073200
     73 H152         0.4530    -2.3410     3.2410 hc         1 EDE       0.073200
     74 H17          0.9310    -2.4150     5.3550 hn         1 EDE       0.338500
     75 H181        -0.3350    -3.9110     7.4390 h1         1 EDE       0.064200
     76 H182         1.0670    -4.8540     6.8690 h1         1 EDE       0.064200
     77 H20          1.3150    -4.3210     9.3340 hn         1 EDE       0.315500
     78 H211         2.9010    -3.5510    10.8550 h1         1 EDE       0.055200
     79 H212         3.5370    -2.4330     9.6310 h1         1 EDE       0.055200
     80 H221         1.5930    -0.8930    10.0390 hc         1 EDE       0.055200
     81 H222         0.9580    -2.0140    11.2480 hc         1 EDE       0.055200
     82 H231         3.0370    -1.7080    12.6200 h1         1 EDE       0.028200
     83 H232         3.6580    -0.5660    11.4110 h1         1 EDE       0.028200
     84 H24          1.7290     0.8110    11.7900 hn         1 EDE       0.408000
     85 H251         2.9980     0.1490    14.3780 h1         1 EDE       0.029200
     86 H252         3.6180     1.3080    13.1840 h1         1 EDE       0.029200
     87 H261         1.5070     2.6440    13.3920 hc         1 EDE       0.042200
     88 H262         0.8880     1.4880    14.5750 hc         1 EDE       0.042200
     89 H271         2.8010     2.0370    16.1100 hc         1 EDE       0.056200
     90 H272         3.4210     3.1890    14.9290 hc         1 EDE       0.056200
     91 H281         1.2910     4.5300    15.1370 hc         1 EDE       0.049200
     92 H282         0.6840     3.3770    16.3060 hc         1 EDE       0.049200
     93 H311         3.0870    -0.0760    -9.0480 hc         1 EDE       0.063700
     94 H312         2.0880     0.4750   -10.4250 hc         1 EDE       0.063700
     95 H32          3.1800     2.3520    -8.2740 h1         1 EDE       0.085700
     96 H331         2.2960     2.8220   -11.0440 hn         1 EDE       0.403500
     97 H332         1.3750     3.0710    -9.7370 hn         1 EDE       0.403500
     98 H35          5.4220     2.9710    -8.1710 ha         1 EDE       0.118500
     99 H36          7.7370     2.8690    -9.0420 ha         1 EDE       0.116500
    100 H38          6.3210     0.8940   -12.6100 ha         1 EDE       0.116500
    101 H39          3.9980     0.9920   -11.7520 ha         1 EDE       0.118500
    102 H40          9.0520     2.2240   -10.7130 ho         1 EDE       0.461000
    103 H42         -2.5030    -1.8830    -9.2650 ho         1 EDE       0.464000
    104 H451        -5.0780    -2.3800    -3.5020 h1         1 EDE       0.038700
    105 H452        -3.3310    -2.6970    -3.5470 h1         1 EDE       0.038700
    106 H461        -4.7190    -4.2610    -4.8160 hn         1 EDE       0.394500
    107 H462        -5.1920    -3.0800    -5.8150 hn         1 EDE       0.394500
    108 H501        -2.3880    -3.5050     0.4760 hn         1 EDE       0.402500
    109 H502        -1.6690    -2.3780    -0.4190 hn         1 EDE       0.402500
    110 H51         -1.3870    -0.6590     3.7310 ho         1 EDE       0.433000
    111 H54          2.7360     4.9730    18.8100 hn         1 EDE       0.366400
    112 H551         3.0770     6.4190    17.2880 hn         1 EDE       0.460000
    113 H552         3.0450     5.8440    15.6850 hn         1 EDE       0.460000
@<TRIPOS>BOND
     1     1     2 1   
     2     1    30 1   
     3     1    56 1   
     4     2     3 1   
     5     2    57 1   
     6     2    58 1   
     7     3     4 1   
     8     3    42 1   
     9     3    59 1   
    10     4     5 1   
    11     4    43 2   
    12     5     6 1   
    13     5    60 1   
    14     6     7 1   
    15     6    45 1   
    16     6    61 1   
    17     7     8 1   
    18     7    44 2   
    19     8     9 1   
    20     8    62 1   
    21     9    10 1   
    22     9    47 1   
    23     9    63 1   
    24    10    11 1   
    25    10    64 1   
    26    10    65 1   
    27    11    12 1   
    28    11    66 1   
    29    11    67 1   
    30    12    13 1   
    31    12    68 1   
    32    12    69 1   
    33    13    14 1   
    34    13    50 1   
    35    13    70 1   
    36    14    15 1   
    37    14    51 1   
    38    14    71 1   
    39    15    16 1   
    40    15    72 1   
    41    15    73 1   
    42    16    17 1   
    43    16    52 2   
    44    17    18 1   
    45    17    74 1   
    46    18    19 1   
    47    18    75 1   
    48    18    76 1   
    49    19    20 1   
    50    19    53 2   
    51    20    21 1   
    52    20    77 1   
    53    21    22 1   
    54    21    78 1   
    55    21    79 1   
    56    22    23 1   
    57    22    80 1   
    58    22    81 1   
    59    23    24 1   
    60    23    82 1   
    61    23    83 1   
    62    24    25 1   
    63    24    84 1   
    64    25    26 1   
    65    25    85 1   
    66    25    86 1   
    67    26    27 1   
    68    26    87 1   
    69    26    88 1   
    70    27    28 1   
    71    27    89 1   
    72    27    90 1   
    73    28    29 1   
    74    28    91 1   
    75    28    92 1   
    76    29    54 2   
    77    29    55 1   
    78    30    31 1   
    79    30    41 2   
    80    31    32 1   
    81    31    93 1   
    82    31    94 1   
    83    32    33 1   
    84    32    34 1   
    85    32    95 1   
    86    33    96 1   
    87    33    97 1   
    88    34    35 ar  
    89    34    39 ar  
    90    35    36 ar  
    91    35    98 1   
    92    36    37 ar  
    93    36    99 1   
    94    37    38 ar  
    95    37    40 1   
    96    38    39 ar  
    97    38   100 1   
    98    39   101 1   
    99    40   102 1   
   100    42   103 1   
   101    45    46 1   
   102    45   104 1   
   103    45   105 1   
   104    46   106 1   
   105    46   107 1   
   106    47    48 1   
   107    47    49 1   
   108    50   108 1   
   109    50   109 1   
   110    51   110 1   
   111    54   111 1   
   112    55   112 1   
   113    55   113 1   
@<TRIPOS>SUBSTRUCTURE
     1 EDE         1 TEMP              0 ****  ****    0 ROOT
