@<TRIPOS>MOLECULE
EDE
  113   113     1     0     0
SMALL
abcg2


@<TRIPOS>ATOM
      1 N1           0.1760    -0.4630    -9.3760 ns         1 EDE      -0.493900
      2 C2          -0.8720    -0.7530    -8.4320 c3         1 EDE       0.070000
      3 C3          -0.6330    -2.0710    -7.6810 c3         1 EDE       0.065300
      4 C4          -1.7990    -2.2970    -6.7210 c          1 EDE       0.581100
      5 N5          -1.7240    -1.6260    -5.5690 ns         1 EDE      -0.458900
      6 C6          -2.7370    -1.6550    -4.5470 c3         1 EDE       0.018700
      7 C7          -2.8470    -0.2690    -3.9180 c          1 EDE       0.577100
      8 N8          -4.0660     0.0410    -3.4770 ns         1 EDE      -0.449900
      9 C9          -4.4160     1.2300    -2.7310 c3         1 EDE      -0.045300
     10 C10         -4.4550     0.9480    -1.2220 c3         1 EDE      -0.074400
     11 C11         -3.1490     0.4170    -0.6470 c3         1 EDE      -0.080400
     12 C12         -3.2680     0.0590     0.8280 c3         1 EDE      -0.110400
     13 C13         -1.9750    -0.5120     1.4270 c3         1 EDE       0.132500
     14 C14         -2.1810    -0.9140     2.8950 c3         1 EDE       0.178300
     15 C15         -0.8980    -1.4220     3.5430 c3         1 EDE      -0.183400
     16 C16         -1.1630    -1.9920     4.9170 c          1 EDE       0.609100
     17 N17         -0.3160    -1.6100     5.8830 ns         1 EDE      -0.503900
     18 C18         -0.4170    -2.1070     7.2270 c3         1 EDE       0.022000
     19 C19          0.7640    -1.6270     8.0540 c          1 EDE       0.588100
     20 N20          0.9090    -2.2720     9.2160 ns         1 EDE      -0.502900
     21 C21          1.8690    -1.9050    10.2350 c3         1 EDE       0.103000
     22 C22          1.3170    -0.8990    11.2360 c3         1 EDE      -0.107400
     23 C23          2.2970    -0.6340    12.3690 c3         1 EDE       0.166800
     24 N24          1.7300     0.2710    13.3480 n7         1 EDE      -0.867400
     25 C25          2.5990     0.5080    14.4850 c3         1 EDE       0.162800
     26 C26          1.9260     1.3950    15.5200 c3         1 EDE      -0.082400
     27 C27          2.7970     1.6230    16.7500 c3         1 EDE      -0.062400
     28 C28          2.0940     2.4830    17.7850 c3         1 EDE      -0.117700
     29 C29          2.8640     2.7120    19.0610 c2         1 EDE       0.611200
     30 C30          1.3250     0.1420    -9.0340 c          1 EDE       0.588100
     31 C31          2.3270     0.3220   -10.1520 c3         1 EDE      -0.200400
     32 C32          2.7760     1.7900   -10.2760 c3         1 EDE       0.227800
     33 N33          1.6800     2.7090   -10.5310 n8         1 EDE      -1.002200
     34 C34          3.8540     1.8950   -11.3330 ca         1 EDE      -0.106300
     35 C35          5.1290     1.3980   -11.0770 ca         1 EDE      -0.062000
     36 C36          6.1350     1.4440   -12.0300 ca         1 EDE      -0.178000
     37 C37          5.8790     1.9960   -13.2830 ca         1 EDE       0.132100
     38 C38          4.6110     2.5000   -13.5550 ca         1 EDE      -0.178000
     39 C39          3.6190     2.4490   -12.5870 ca         1 EDE      -0.062000
     40 O40          6.8140     2.0670   -14.2540 oh         1 EDE      -0.538100
     41 O41          1.5520     0.5360    -7.8970 o          1 EDE      -0.603100
     42 O42         -0.5040    -3.1510    -8.5580 oh         1 EDE      -0.655000
     43 O43         -2.7420    -2.9980    -7.0630 o          1 EDE      -0.629100
     44 O44         -1.8530     0.4360    -3.7910 o          1 EDE      -0.650100
     45 C45         -2.4090    -2.6640    -3.4360 c3         1 EDE       0.132800
     46 N46         -2.2240    -3.9940    -3.9750 n8         1 EDE      -0.997200
     47 C47         -5.7970     1.7580    -3.1880 c          1 EDE       0.717000
     48 O48         -6.0890     2.9010    -2.7940 o          1 EDE      -0.718500
     49 O49         -6.5030     0.9900    -3.8690 o          1 EDE      -0.718500
     50 N50         -1.4430    -1.6650     0.7110 n8         1 EDE      -1.016200
     51 O51         -2.7490     0.1250     3.6640 oh         1 EDE      -0.650000
     52 O52         -2.0780    -2.7790     5.1290 o          1 EDE      -0.614100
     53 O53          1.4950    -0.7230     7.6740 o          1 EDE      -0.609100
     54 N54          3.9390     2.0630    19.2930 n2         1 EDE      -0.831100
     55 N55          2.3180     3.6660    19.8730 nv         1 EDE      -1.087200
     56 H1           0.0690    -0.8040   -10.3160 hn         1 EDE       0.314500
     57 H21         -1.8130    -0.8100    -8.9820 h1         1 EDE       0.071700
     58 H22         -0.9610     0.0730    -7.7240 h1         1 EDE       0.071700
     59 H3           0.3020    -1.9900    -7.1170 h1         1 EDE       0.092700
     60 H5          -0.8870    -1.1030    -5.3590 hn         1 EDE       0.339500
     61 H6          -3.6840    -1.9380    -5.0120 h1         1 EDE       0.088700
     62 H8          -4.8450    -0.5460    -3.7400 hn         1 EDE       0.333500
     63 H9          -3.6590     1.9920    -2.9290 h1         1 EDE       0.068700
     64 H101        -4.7380     1.8700    -0.7110 hc         1 EDE       0.049200
     65 H102        -5.2530     0.2230    -1.0250 hc         1 EDE       0.049200
     66 H111        -2.8510    -0.4720    -1.2070 hc         1 EDE       0.032700
     67 H112        -2.3540     1.1560    -0.7930 hc         1 EDE       0.032700
     68 H121        -3.5760     0.9430     1.3910 hc         1 EDE       0.049200
     69 H122        -4.0680    -0.6820     0.9550 hc         1 EDE       0.049200
     70 H13         -1.2020     0.2680     1.3880 h1         1 EDE       0.051700
     71 H14         -2.9180    -1.7240     2.9160 h1         1 EDE       0.090700
     72 H151        -0.4770    -2.2170     2.9250 hc         1 EDE       0.073200
     73 H152        -0.1490    -0.6240     3.5770 hc         1 EDE       0.073200
     74 H17          0.4050    -0.9310     5.6940 hn         1 EDE       0.338500
     75 H181        -1.3350    -1.7560     7.7130 h1         1 EDE       0.064200
     76 H182        -0.4590    -3.1980     7.2370 h1         1 EDE       0.064200
     77 H20          0.2360    -2.9840     9.4540 hn         1 EDE       0.315500
     78 H211         2.1640    -2.8200    10.7510 h1         1 EDE       0.055200
     79 H212         2.7640    -1.5140     9.7490 h1         1 EDE       0.055200
     80 H221         1.0800     0.0360    10.7190 hc         1 EDE       0.055200
     81 H222         0.3810    -1.2780    11.6550 hc         1 EDE       0.055200
     82 H231         2.5240    -1.5800    12.8730 h1         1 EDE       0.028200
     83 H232         3.2530    -0.2730    11.9560 h1         1 EDE       0.028200
     84 H24          1.5310     1.1580    12.8990 hn         1 EDE       0.408000
     85 H251         2.8330    -0.4600    14.9410 h1         1 EDE       0.029200
     86 H252         3.5670     0.9500    14.1970 h1         1 EDE       0.029200
     87 H261         1.6710     2.3590    15.0650 hc         1 EDE       0.042200
     88 H262         0.9790     0.9340    15.8160 hc         1 EDE       0.042200
     89 H271         3.0650     0.6610    17.1920 hc         1 EDE       0.056200
     90 H272         3.7380     2.0960    16.4570 hc         1 EDE       0.056200
     91 H281         1.8390     3.4560    17.3520 hc         1 EDE       0.049200
     92 H282         1.1340     2.0260    18.0520 hc         1 EDE       0.049200
     93 H311         3.1870    -0.3160    -9.9300 hc         1 EDE       0.063700
     94 H312         1.9250    -0.0130   -11.1130 hc         1 EDE       0.063700
     95 H32          3.2170     2.0830    -9.3200 h1         1 EDE       0.085700
     96 H331         1.0660     2.3420   -11.2480 hn         1 EDE       0.403500
     97 H332         1.1120     2.8010    -9.6980 hn         1 EDE       0.403500
     98 H35          5.3560     0.9680   -10.1070 ha         1 EDE       0.118500
     99 H36          7.1180     1.0550   -11.7940 ha         1 EDE       0.116500
    100 H38          4.4020     2.9370   -14.5240 ha         1 EDE       0.116500
    101 H39          2.6470     2.8620   -12.8240 ha         1 EDE       0.118500
    102 H40          7.6460     1.6900   -13.9450 ho         1 EDE       0.461000
    103 H42         -1.3950    -3.4700    -8.7540 ho         1 EDE       0.464000
    104 H451        -3.2020    -2.5910    -2.6780 h1         1 EDE       0.038700
    105 H452        -1.4790    -2.3550    -2.9510 h1         1 EDE       0.038700
    106 H461        -1.9610    -4.6210    -3.2250 hn         1 EDE       0.394500
    107 H462        -3.1020    -4.3430    -4.3370 hn         1 EDE       0.394500
    108 H501        -2.1730    -2.3590     0.5840 hn         1 EDE       0.402500
    109 H502        -1.1470    -1.3930    -0.2180 hn         1 EDE       0.402500
    110 H51         -2.1390     0.8710     3.6660 ho         1 EDE       0.433000
    111 H54          4.3290     2.3160    20.1980 hn         1 EDE       0.366400
    112 H551         2.6080     3.6940    20.8380 hn         1 EDE       0.460000
    113 H552         1.3560     3.9240    19.7280 hn         1 EDE       0.460000
@<TRIPOS>BOND
     1     1     2 1   
     2     1    30 1   
     3     1    56 1   
     4     2     3 1   
     5     2    57 1   
     6     2    58 1   
     7     3     4 1   
     8     3    42 1   
     9     3    59 1   
    10     4     5 1   
    11     4    43 2   
    12     5     6 1   
    13     5    60 1   
    14     6     7 1   
    15     6    45 1   
    16     6    61 1   
    17     7     8 1   
    18     7    44 2   
    19     8     9 1   
    20     8    62 1   
    21     9    10 1   
    22     9    47 1   
    23     9    63 1   
    24    10    11 1   
    25    10    64 1   
    26    10    65 1   
    27    11    12 1   
    28    11    66 1   
    29    11    67 1   
    30    12    13 1   
    31    12    68 1   
    32    12    69 1   
    33    13    14 1   
    34    13    50 1   
    35    13    70 1   
    36    14    15 1   
    37    14    51 1   
    38    14    71 1   
    39    15    16 1   
    40    15    72 1   
    41    15    73 1   
    42    16    17 1   
    43    16    52 2   
    44    17    18 1   
    45    17    74 1   
    46    18    19 1   
    47    18    75 1   
    48    18    76 1   
    49    19    20 1   
    50    19    53 2   
    51    20    21 1   
    52    20    77 1   
    53    21    22 1   
    54    21    78 1   
    55    21    79 1   
    56    22    23 1   
    57    22    80 1   
    58    22    81 1   
    59    23    24 1   
    60    23    82 1   
    61    23    83 1   
    62    24    25 1   
    63    24    84 1   
    64    25    26 1   
    65    25    85 1   
    66    25    86 1   
    67    26    27 1   
    68    26    87 1   
    69    26    88 1   
    70    27    28 1   
    71    27    89 1   
    72    27    90 1   
    73    28    29 1   
    74    28    91 1   
    75    28    92 1   
    76    29    54 2   
    77    29    55 1   
    78    30    31 1   
    79    30    41 2   
    80    31    32 1   
    81    31    93 1   
    82    31    94 1   
    83    32    33 1   
    84    32    34 1   
    85    32    95 1   
    86    33    96 1   
    87    33    97 1   
    88    34    35 ar  
    89    34    39 ar  
    90    35    36 ar  
    91    35    98 1   
    92    36    37 ar  
    93    36    99 1   
    94    37    38 ar  
    95    37    40 1   
    96    38    39 ar  
    97    38   100 1   
    98    39   101 1   
    99    40   102 1   
   100    42   103 1   
   101    45    46 1   
   102    45   104 1   
   103    45   105 1   
   104    46   106 1   
   105    46   107 1   
   106    47    48 1   
   107    47    49 1   
   108    50   108 1   
   109    50   109 1   
   110    51   110 1   
   111    54   111 1   
   112    55   112 1   
   113    55   113 1   
@<TRIPOS>SUBSTRUCTURE
     1 EDE         1 TEMP              0 ****  ****    0 ROOT
