@<TRIPOS>MOLECULE
EDF
   54    57     1     0     0
SMALL
bcc


@<TRIPOS>ATOM
      1 C10        -14.6330    -8.7460     2.9650 c3         1 EDF      -0.110600
      2 C13        -11.9490    -7.4140     1.2440 ca         1 EDF      -0.203000
      3 C20         -9.7060    -9.3080     4.1950 cp         1 EDF       0.554800
      4 C21        -10.6970    -9.3710     5.2880 cp         1 EDF      -0.161500
      5 C22        -10.6230   -10.3460     6.2830 ca         1 EDF      -0.093500
      6 C24        -12.5980    -9.4610     7.3340 ca         1 EDF      -0.110000
      7 C26        -11.7370    -8.4420     5.3330 ca         1 EDF      -0.093500
      8 C28        -15.4040    -5.5880    -0.3440 c          1 EDF       0.707500
      9 C03        -13.0360    -6.0220    -0.4150 ca         1 EDF      -0.015400
     10 C04        -11.8420    -5.9730    -1.1190 ca         1 EDF      -0.103000
     11 C05        -10.7060    -6.6100    -0.6500 ca         1 EDF      -0.205000
     12 C06        -13.0930    -6.7660     0.7770 ca         1 EDF       0.177600
     13 C08        -14.4130    -7.2420     2.8140 c3         1 EDF       0.241500
     14 C09        -15.4770    -6.4550     3.5730 c3         1 EDF      -0.110600
     15 C11        -15.4600    -6.8030     0.5640 c6         1 EDF       0.155500
     16 C12        -15.6190    -8.0680    -0.2870 c3         1 EDF      -0.116100
     17 C14        -10.7450    -7.3280     0.5460 ca         1 EDF       0.194600
     18 C16         -9.2180    -8.5900     2.0900 ca         1 EDF       0.917900
     19 C18         -7.6050    -9.7050     3.2010 ca         1 EDF       0.480200
     20 C19         -8.4320    -9.8540     4.3040 ca         1 EDF      -0.416600
     21 C23        -11.5680   -10.3920     7.2960 ca         1 EDF      -0.140000
     22 C25        -12.6780    -8.4840     6.3500 ca         1 EDF      -0.140000
     23 N02        -14.1670    -5.2890    -0.8160 n          1 EDF      -0.362000
     24 N07        -14.3030    -6.7920     1.4330 nh         1 EDF      -0.685000
     25 N17         -7.9730    -9.0850     2.0960 nb         1 EDF      -0.768000
     26 N27        -10.0870    -8.6780     3.0860 nb         1 EDF      -0.772000
     27 O29        -16.4090    -4.9650    -0.6450 o          1 EDF      -0.627500
     28 H103       -14.5660    -9.0330     4.0150 hc         1 EDF       0.042700
     29 H101       -15.6220    -9.0390     2.6090 hc         1 EDF       0.042700
     30 H102       -13.8910    -9.3240     2.4140 hc         1 EDF       0.042700
     31 H131       -11.9930    -7.9980     2.1470 ha         1 EDF       0.171000
     32 H221        -9.8380   -11.0910     6.2610 ha         1 EDF       0.141000
     33 H241       -13.3340    -9.4970     8.1260 ha         1 EDF       0.133000
     34 H261       -11.7980    -7.6750     4.5740 ha         1 EDF       0.141000
     35 H011       -14.9150    -3.6270    -1.8180 h1         1 EDF       0.048367
     36 H013       -13.1920    -3.5430    -1.4330 h1         1 EDF       0.048367
     37 H012       -13.7580    -4.5730    -2.7580 h1         1 EDF       0.048367
     38 H041       -11.7730    -5.4110    -2.0410 ha         1 EDF       0.136000
     39 H051        -9.7860    -6.5400    -1.2170 ha         1 EDF       0.133000
     40 H081       -13.4580    -6.9840     3.2770 h1         1 EDF       0.062700
     41 H092       -15.3910    -6.6660     4.6390 hc         1 EDF       0.042700
     42 H091       -15.3500    -5.3820     3.4300 hc         1 EDF       0.042700
     43 H093       -16.4910    -6.7260     3.2770 hc         1 EDF       0.042700
     44 H111       -16.3510    -6.6830     1.1790 h1         1 EDF       0.088700
     45 H123       -15.7100    -8.9490     0.3440 hc         1 EDF       0.049033
     46 H121       -16.5210    -8.0000    -0.8960 hc         1 EDF       0.049033
     47 H122       -14.7710    -8.2170    -0.9580 hc         1 EDF       0.049033
     48 H181        -6.5960   -10.1020     3.2190 h4         1 EDF       0.023100
     49 H191        -8.0800   -10.3510     5.1950 ha         1 EDF       0.155000
     50 H231       -11.5030   -11.1610     8.0550 ha         1 EDF       0.133500
     51 H251       -13.4750    -7.7520     6.3760 ha         1 EDF       0.133500
     52 H151        -8.8110    -7.9110     0.2690 hn         1 EDF       0.456800
     53 N15         -9.5630    -7.9530     0.9390 nu         1 EDF      -0.734300
     54 C01        -13.9960    -4.2000    -1.7610 c3         1 EDF       0.081300
@<TRIPOS>BOND
     1     1    13 1   
     2     1    28 1   
     3     1    29 1   
     4     1    30 1   
     5     2    12 ar  
     6     2    17 ar  
     7     2    31 1   
     8     3     4 1   
     9     3    20 ar  
    10     3    26 ar  
    11     4     5 ar  
    12     4     7 ar  
    13     5    21 ar  
    14     5    32 1   
    15     6    21 ar  
    16     6    22 ar  
    17     6    33 1   
    18     7    22 ar  
    19     7    34 1   
    20     8    15 1   
    21     8    23 1   
    22     8    27 2   
    23     9    10 ar  
    24     9    12 ar  
    25     9    23 1   
    26    10    11 ar  
    27    10    38 1   
    28    11    17 ar  
    29    11    39 1   
    30    12    24 1   
    31    13    14 1   
    32    13    24 1   
    33    13    40 1   
    34    14    41 1   
    35    14    42 1   
    36    14    43 1   
    37    15    16 1   
    38    15    24 1   
    39    15    44 1   
    40    16    45 1   
    41    16    46 1   
    42    16    47 1   
    43    17    53 1   
    44    18    25 ar  
    45    18    26 ar  
    46    18    53 1   
    47    19    20 ar  
    48    19    25 ar  
    49    19    48 1   
    50    20    49 1   
    51    21    50 1   
    52    22    51 1   
    53    23    54 1   
    54    35    54 1   
    55    36    54 1   
    56    37    54 1   
    57    52    53 1   
@<TRIPOS>SUBSTRUCTURE
     1 EDF         1 TEMP              0 ****  ****    0 ROOT
