@<TRIPOS>MOLECULE
EDF
   54    57     1     0     0
SMALL
No Charge or Current Charge


@<TRIPOS>ATOM
      1 C10        -15.4250    -8.8640     2.9160 c3         1 EDF      -0.110600
      2 C13        -11.9570    -7.6970     1.0340 ca         1 EDF      -0.185000
      3 C20         -9.5720    -9.2740     4.2520 cp         1 EDF       0.226500
      4 C21        -10.5270    -9.2450     5.4160 cp         1 EDF      -0.161500
      5 C22        -10.4240   -10.1750     6.4860 ca         1 EDF      -0.075500
      6 C24        -12.3580    -9.1980     7.5990 ca         1 EDF      -0.092000
      7 C26        -11.5830    -8.2920     5.4780 ca         1 EDF      -0.075500
      8 C28        -15.5080    -5.7670    -0.4770 c          1 EDF       0.565000
      9 C03        -13.0120    -5.9040    -0.2530 ca         1 EDF      -0.108000
     10 C04        -11.7570    -5.6380    -0.8480 ca         1 EDF      -0.085000
     11 C05        -10.6110    -6.3410    -0.4410 ca         1 EDF      -0.187000
     12 C06        -13.1080    -6.9910     0.6580 ca         1 EDF       0.316000
     13 C08        -14.5670    -7.6150     2.6240 c3         1 EDF       0.241500
     14 C09        -15.1060    -6.3640     3.3480 c3         1 EDF      -0.110600
     15 C11        -15.5650    -7.1130     0.3090 c6         1 EDF       0.155500
     16 C12        -15.7270    -8.2850    -0.6960 c3         1 EDF      -0.116100
     17 C14        -10.7000    -7.3530     0.5220 ca         1 EDF       0.333000
     18 C16         -9.1410    -8.6870     2.0590 ca         1 EDF       0.391900
     19 C18         -7.5240    -9.9040     3.1200 ca         1 EDF       0.151900
     20 C19         -8.3160    -9.9300     4.2800 ca         1 EDF      -0.268000
     21 C23        -11.3280   -10.1500     7.5630 ca         1 EDF      -0.122000
     22 C25        -12.4850    -8.2700     6.5550 ca         1 EDF      -0.122000
     23 N02        -14.2140    -5.2460    -0.7370 n          1 EDF      -0.202400
     24 N07        -14.3680    -7.3840     1.1710 nh         1 EDF      -0.823400
     25 N17         -7.9380    -9.2800     2.0010 nb         1 EDF      -0.242000
     26 N27         -9.9550    -8.6410     3.1270 nb         1 EDF      -0.246000
     27 O29        -16.5370    -5.1900    -0.8260 o          1 EDF      -0.552000
     28 H103       -15.4570    -9.0620     3.9940 hc         1 EDF       0.042700
     29 H101       -16.4540    -8.7340     2.5620 hc         1 EDF       0.042700
     30 H102       -14.9970    -9.7440     2.4230 hc         1 EDF       0.042700
     31 H131       -12.0550    -8.5440     1.6990 ha         1 EDF       0.153000
     32 H221        -9.6500   -10.9370     6.4820 ha         1 EDF       0.123000
     33 H241       -13.0570    -9.1810     8.4330 ha         1 EDF       0.115000
     34 H261       -11.7050    -7.5530     4.6900 ha         1 EDF       0.123000
     35 H011       -15.0090    -3.3300    -1.2670 h1         1 EDF       0.048367
     36 H013       -13.2600    -3.3630    -0.9920 h1         1 EDF       0.048367
     37 H012       -13.9390    -4.0790    -2.4850 h1         1 EDF       0.048367
     38 H041       -11.6500    -4.8770    -1.6180 ha         1 EDF       0.118000
     39 H051        -9.6500    -6.0930    -0.8830 ha         1 EDF       0.115000
     40 H081       -13.5910    -7.8200     3.0830 h1         1 EDF       0.062700
     41 H092       -15.1360    -6.5320     4.4310 hc         1 EDF       0.042700
     42 H091       -14.4550    -5.5020     3.1580 hc         1 EDF       0.042700
     43 H093       -16.1190    -6.1130     3.0130 hc         1 EDF       0.042700
     44 H111       -16.4810    -7.0550     0.9150 h1         1 EDF       0.088700
     45 H123       -15.8320    -9.2420    -0.1720 hc         1 EDF       0.049033
     46 H121       -16.6190    -8.1490    -1.3180 hc         1 EDF       0.049033
     47 H122       -14.8610    -8.3610    -1.3640 hc         1 EDF       0.049033
     48 H181        -6.5490   -10.3870     3.0860 h4         1 EDF       0.023100
     49 H191        -7.9540   -10.4340     5.1690 ha         1 EDF       0.137000
     50 H231       -11.2300   -10.8740     8.3680 ha         1 EDF       0.115500
     51 H251       -13.2830    -7.5300     6.5800 ha         1 EDF       0.115500
     52 H151        -8.7690    -7.9210     0.2380 hn         1 EDF       0.512000
     53 N15         -9.5350    -8.0240     0.9030 nu         1 EDF      -0.927900
     54 C01        -14.1020    -3.9280    -1.4110 c3         1 EDF       0.081300
@<TRIPOS>BOND
     1     1    13 1   
     2     1    28 1   
     3     1    29 1   
     4     1    30 1   
     5     2    12 ar  
     6     2    17 ar  
     7     2    31 1   
     8     3     4 1   
     9     3    20 ar  
    10     3    26 ar  
    11     4     5 ar  
    12     4     7 ar  
    13     5    21 ar  
    14     5    32 1   
    15     6    21 ar  
    16     6    22 ar  
    17     6    33 1   
    18     7    22 ar  
    19     7    34 1   
    20     8    15 1   
    21     8    23 1   
    22     8    27 2   
    23     9    10 ar  
    24     9    12 ar  
    25     9    23 1   
    26    10    11 ar  
    27    10    38 1   
    28    11    17 ar  
    29    11    39 1   
    30    12    24 1   
    31    13    14 1   
    32    13    24 1   
    33    13    40 1   
    34    14    41 1   
    35    14    42 1   
    36    14    43 1   
    37    15    16 1   
    38    15    24 1   
    39    15    44 1   
    40    16    45 1   
    41    16    46 1   
    42    16    47 1   
    43    17    53 1   
    44    18    25 ar  
    45    18    26 ar  
    46    18    53 1   
    47    19    20 ar  
    48    19    25 ar  
    49    19    48 1   
    50    20    49 1   
    51    21    50 1   
    52    22    51 1   
    53    23    54 1   
    54    35    54 1   
    55    36    54 1   
    56    37    54 1   
    57    52    53 1   
@<TRIPOS>SUBSTRUCTURE
     1 EDF         1 TEMP              0 ****  ****    0 ROOT
