@<TRIPOS>MOLECULE
EDH
   42    44     1     0     0
SMALL
bcc


@<TRIPOS>ATOM
      1 C01          5.7870     0.7800     0.1090 c          1 EDH       0.684700
      2 C02          4.5530    -0.0680     0.1350 ca         1 EDH      -0.172600
      3 C03          4.5980    -1.4540     0.2660 ca         1 EDH      -0.087000
      4 C04          3.4220    -2.1880     0.3160 ca         1 EDH      -0.163000
      5 C05          2.1960    -1.5470     0.2350 ca         1 EDH      -0.054000
      6 C06          2.1360    -0.1610     0.1050 ca         1 EDH      -0.135600
      7 C07          0.8280     0.5620     0.0120 c          1 EDH       0.735100
      8 C08         -1.4540     0.2740     0.1130 cc         1 EDH       0.665300
      9 C09         -3.2460     1.6000    -0.0830 ca         1 EDH      -0.041200
     10 C10         -3.6880     0.3000     0.1690 ca         1 EDH      -0.050200
     11 C11         -5.0370    -0.0000     0.2570 ca         1 EDH      -0.117000
     12 C12         -5.9310     1.0500     0.0850 ca         1 EDH      -0.126000
     13 C13         -5.4870     2.3500    -0.1650 ca         1 EDH      -0.123000
     14 C14         -4.1330     2.6480    -0.2530 ca         1 EDH      -0.115000
     15 C16         -2.7700    -2.7170    -0.7570 c3         1 EDH      -0.100400
     16 C17         -2.7690    -4.2130    -0.4800 c3         1 EDH      -0.088100
     17 C18          3.3190     0.5680     0.0650 ca         1 EDH      -0.030000
     18 N01          6.9170     0.1720    -0.2810 nt         1 EDH      -0.672000
     19 N02         -0.2460    -0.2350     0.1660 nf         1 EDH      -0.831100
     20 N03         -1.8710     1.5420    -0.1070 na         1 EDH      -0.299300
     21 N04         -2.5620    -0.4880     0.2950 na         1 EDH      -0.166300
     22 O01          0.8180     1.7790    -0.1850 o          1 EDH      -0.654100
     23 O02          5.7470     1.9580     0.4370 o          1 EDH      -0.601100
     24 H03          5.5420    -1.9770     0.3550 ha         1 EDH       0.126000
     25 H04          3.4650    -3.2630     0.4240 ha         1 EDH       0.132000
     26 H05          1.2810    -2.1210     0.2740 ha         1 EDH       0.152000
     27 H06         -5.3880    -1.0060     0.4490 ha         1 EDH       0.144000
     28 H07         -6.9930     0.8530     0.1450 ha         1 EDH       0.137000
     29 H08         -6.2130     3.1420    -0.2940 ha         1 EDH       0.138000
     30 H09         -3.7890     3.6550    -0.4460 ha         1 EDH       0.148000
     31 H10         -3.3270    -2.1470     1.2570 h1         1 EDH       0.069700
     32 H11         -1.5940    -2.1730     0.9710 h1         1 EDH       0.069700
     33 H12         -3.7170    -2.4250    -1.2180 hc         1 EDH       0.053200
     34 H13         -1.9810    -2.4680    -1.4720 hc         1 EDH       0.053200
     35 H18         -1.8120    -4.5390    -0.0710 hc         1 EDH       0.037033
     36 H16         -3.5450    -4.4840     0.2370 hc         1 EDH       0.037033
     37 H17         -2.9490    -4.7790    -1.3930 hc         1 EDH       0.037033
     38 H14          3.2780     1.6450    -0.0250 ha         1 EDH       0.173000
     39 H01          6.9240    -0.7440    -0.6960 hn         1 EDH       0.312000
     40 H02          7.7730     0.7000    -0.3330 hn         1 EDH       0.312000
     41 H15         -1.2200     2.2980    -0.2630 hn         1 EDH       0.355700
     42 C15         -2.5530    -1.9190     0.5210 c3         1 EDH       0.060300
@<TRIPOS>BOND
     1     1     2 1   
     2     1    18 1   
     3     1    23 2   
     4     2     3 ar  
     5     2    17 ar  
     6     3     4 ar  
     7     3    24 1   
     8     4     5 ar  
     9     4    25 1   
    10     5     6 ar  
    11     5    26 1   
    12     6     7 1   
    13     6    17 ar  
    14     7    19 1   
    15     7    22 2   
    16     8    19 2   
    17     8    20 1   
    18     8    21 1   
    19     9    10 ar  
    20     9    14 ar  
    21     9    20 1   
    22    10    11 ar  
    23    10    21 1   
    24    11    12 ar  
    25    11    27 1   
    26    12    13 ar  
    27    12    28 1   
    28    13    14 ar  
    29    13    29 1   
    30    14    30 1   
    31    15    16 1   
    32    15    33 1   
    33    15    34 1   
    34    15    42 1   
    35    16    35 1   
    36    16    36 1   
    37    16    37 1   
    38    17    38 1   
    39    18    39 1   
    40    18    40 1   
    41    20    41 1   
    42    21    42 1   
    43    31    42 1   
    44    32    42 1   
@<TRIPOS>SUBSTRUCTURE
     1 EDH         1 TEMP              0 ****  ****    0 ROOT
