@<TRIPOS>MOLECULE
EDH
   42    44     1     0     0
SMALL
No Charge or Current Charge


@<TRIPOS>ATOM
      1 C01          4.3960    -1.3180    -1.1550 c          1 EDH       0.617700
      2 C02          3.3830    -1.3310    -0.0340 ca         1 EDH      -0.172600
      3 C03          3.2710    -2.4200     0.8620 ca         1 EDH      -0.069000
      4 C04          2.3150    -2.3960     1.8900 ca         1 EDH      -0.145000
      5 C05          1.4560    -1.2970     2.0390 ca         1 EDH      -0.036000
      6 C06          1.5440    -0.2010     1.1520 ca         1 EDH      -0.135600
      7 C07          0.6160     0.9860     1.2650 c          1 EDH       0.735100
      8 C08         -1.6310     0.9080     1.4460 cc         1 EDH       0.665300
      9 C09         -3.7070     1.5770     0.8870 ca         1 EDH      -0.041200
     10 C10         -3.3990     0.5100     0.0860 ca         1 EDH      -0.050200
     11 C11         -4.2970     0.0340    -0.8820 ca         1 EDH      -0.099000
     12 C12         -5.5410     0.6920    -1.0040 ca         1 EDH      -0.108000
     13 C13         -5.8560     1.7940    -0.1710 ca         1 EDH      -0.105000
     14 C14         -4.9300     2.2510     0.7920 ca         1 EDH      -0.097000
     15 C16         -0.8000    -0.8790    -1.4860 c3         1 EDH      -0.100400
     16 C17         -0.0500    -2.1190    -2.0100 c3         1 EDH      -0.088100
     17 C18          2.5150    -0.2280     0.1270 ca         1 EDH      -0.012000
     18 N01          5.2130    -2.3840    -1.2940 nt         1 EDH      -0.605000
     19 N02         -0.5110     0.8320     2.0800 nf         1 EDH      -0.831100
     20 N03         -2.6400     1.8160     1.7260 na         1 EDH      -0.349600
     21 N04         -2.1310     0.0760     0.4280 na         1 EDH      -0.195600
     22 O01          0.8070     2.0450     0.6870 o          1 EDH      -0.654100
     23 O02          4.5040    -0.3860    -1.9350 o          1 EDH      -0.601100
     24 H03          3.9170    -3.2900     0.7770 ha         1 EDH       0.108000
     25 H04          2.2380    -3.2370     2.5760 ha         1 EDH       0.114000
     26 H05          0.7250    -1.3050     2.8440 ha         1 EDH       0.134000
     27 H06         -4.0510    -0.8110    -1.5200 ha         1 EDH       0.126000
     28 H07         -6.2620     0.3500    -1.7430 ha         1 EDH       0.119000
     29 H08         -6.8180     2.2920    -0.2750 ha         1 EDH       0.120000
     30 H09         -5.1610     3.0970     1.4350 ha         1 EDH       0.130000
     31 H10         -2.3090    -1.8930    -0.2980 h1         1 EDH       0.069700
     32 H11         -0.8180    -1.5570     0.5770 h1         1 EDH       0.069700
     33 H12         -1.5300    -0.5520    -2.2370 hc         1 EDH       0.053200
     34 H13         -0.0850    -0.0580    -1.3630 hc         1 EDH       0.053200
     35 H18          0.7080    -2.4470    -1.2890 hc         1 EDH       0.037033
     36 H16         -0.7460    -2.9490    -2.1840 hc         1 EDH       0.037033
     37 H17          0.4540    -1.8890    -2.9560 hc         1 EDH       0.037033
     38 H14          2.5860     0.6150    -0.5590 ha         1 EDH       0.155000
     39 H01          5.1410    -3.1650    -0.6600 hn         1 EDH       0.312000
     40 H02          5.8940    -2.3880    -2.0380 hn         1 EDH       0.312000
     41 H15         -2.5730     2.5240     2.4410 hn         1 EDH       0.406000
     42 C15         -1.5260    -1.1390    -0.1480 c3         1 EDH       0.089600
@<TRIPOS>BOND
     1     1     2 1   
     2     1    18 1   
     3     1    23 2   
     4     2     3 ar  
     5     2    17 ar  
     6     3     4 ar  
     7     3    24 1   
     8     4     5 ar  
     9     4    25 1   
    10     5     6 ar  
    11     5    26 1   
    12     6     7 1   
    13     6    17 ar  
    14     7    19 1   
    15     7    22 2   
    16     8    19 2   
    17     8    20 1   
    18     8    21 1   
    19     9    10 ar  
    20     9    14 ar  
    21     9    20 1   
    22    10    11 ar  
    23    10    21 1   
    24    11    12 ar  
    25    11    27 1   
    26    12    13 ar  
    27    12    28 1   
    28    13    14 ar  
    29    13    29 1   
    30    14    30 1   
    31    15    16 1   
    32    15    33 1   
    33    15    34 1   
    34    15    42 1   
    35    16    35 1   
    36    16    36 1   
    37    16    37 1   
    38    17    38 1   
    39    18    39 1   
    40    18    40 1   
    41    20    41 1   
    42    21    42 1   
    43    31    42 1   
    44    32    42 1   
@<TRIPOS>SUBSTRUCTURE
     1 EDH         1 TEMP              0 ****  ****    0 ROOT
