@<TRIPOS>MOLECULE
EDJ
   52    54     1     0     0
SMALL
bcc


@<TRIPOS>ATOM
      1 C4           2.2070    -0.4790    -0.3920 ca         1 EDJ       0.783600
      2 C5           2.1560    -1.8400    -0.0610 ca         1 EDJ      -0.328500
      3 C6           0.9050    -2.3500     0.1880 ca         1 EDJ       0.515200
      4 N1          -0.2010    -1.6150     0.1220 nb         1 EDJ      -0.785000
      5 N3           1.1280     0.2480    -0.4820 nb         1 EDJ      -0.851000
      6 CAB         -5.0090     3.5800    -0.6370 c3         1 EDJ       0.122700
      7 CBA         -4.6570     1.3050    -0.0720 ca         1 EDJ       0.184600
      8 CAL         -3.2860     1.4060    -0.2680 ca         1 EDJ      -0.292500
      9 CBE         -5.2280     0.0900     0.3180 ca         1 EDJ      -0.004900
     10 OAT         -6.5670    -0.0030     0.5430 os         1 EDJ      -0.300900
     11 CAD         -7.3300    -0.3320    -0.6090 c3         1 EDJ       0.123700
     12 CBB         -4.4030    -1.0220     0.4860 ca         1 EDJ       0.184600
     13 OAS         -5.0280    -2.1550     0.8500 os         1 EDJ      -0.300400
     14 CAC         -4.2520    -3.3150     1.0780 c3         1 EDJ       0.122700
     15 CAM         -3.0240    -0.9340     0.2930 ca         1 EDJ      -0.292500
     16 CAW         -2.4700     0.2860    -0.0840 ca         1 EDJ       0.246600
     17 C2          -0.0420    -0.3410    -0.2080 ca         1 EDJ       0.957900
     18 BR5          3.7060    -2.8710     0.0920 br         1 EDJ      -0.048100
     19 OAU          3.3900     0.0550    -0.6790 os         1 EDJ      -0.333400
     20 CAZ          3.5170     1.4240    -0.7180 ca         1 EDJ       0.158100
     21 CAI          3.7310     1.9810    -1.9660 ca         1 EDJ      -0.138000
     22 CAG          3.9410     3.3450    -2.0930 ca         1 EDJ      -0.098000
     23 CAH          3.9260     4.1470    -0.9620 ca         1 EDJ      -0.142000
     24 CAJ          3.7130     3.5800     0.2840 ca         1 EDJ      -0.082000
     25 CBC          3.5050     2.2070     0.4420 ca         1 EDJ      -0.131900
     26 CAV          3.3000     1.6410     1.7980 ce         1 EDJ       0.677200
     27 OAE          3.3690     2.5850     2.7520 oh         1 EDJ      -0.624600
     28 NAP          3.0870     0.4100     1.9780 n2         1 EDJ      -0.683900
     29 CAA          2.8750    -0.1090     3.3060 c3         1 EDJ       0.099100
     30 H1           0.7750    -3.3920     0.4610 h4         1 EDJ       0.034100
     31 H2          -4.5170     3.5230    -1.6110 h1         1 EDJ       0.042367
     32 H3          -5.8640     4.2470    -0.7160 h1         1 EDJ       0.042367
     33 H4          -4.3060     3.9950     0.0900 h1         1 EDJ       0.042367
     34 H5          -2.8360     2.3450    -0.5640 ha         1 EDJ       0.157500
     35 H6          -8.3730    -0.3840    -0.3010 h1         1 EDJ       0.032033
     36 H7          -7.2350     0.4260    -1.3900 h1         1 EDJ       0.032033
     37 H8          -7.0410    -1.3010    -1.0250 h1         1 EDJ       0.032033
     38 H9          -3.7300    -3.6420     0.1760 h1         1 EDJ       0.042367
     39 H10         -3.5180    -3.1650     1.8740 h1         1 EDJ       0.042367
     40 H11         -4.9460    -4.0930     1.3840 h1         1 EDJ       0.042367
     41 H12         -2.3830    -1.7880     0.4260 ha         1 EDJ       0.157500
     42 H13         -0.8540     1.4340    -0.5540 hn         1 EDJ       0.456800
     43 H14          3.7360     1.3380    -2.8370 ha         1 EDJ       0.151000
     44 H15          4.1100     3.7750    -3.0710 ha         1 EDJ       0.139000
     45 H16          4.0820     5.2140    -1.0450 ha         1 EDJ       0.139000
     46 H17          3.7110     4.2260     1.1500 ha         1 EDJ       0.151000
     47 H19          3.7260     0.0580     3.9770 h1         1 EDJ       0.041700
     48 H20          1.9870     0.3140     3.7900 h1         1 EDJ       0.041700
     49 H21          2.7230    -1.1850     3.2450 h1         1 EDJ       0.041700
     50 H22          3.2440     2.2040     3.6300 ho         1 EDJ       0.432000
     51 NAQ         -1.1100     0.4920    -0.2990 nu         1 EDJ      -0.730300
     52 OAR         -5.5160     2.3260    -0.2260 os         1 EDJ      -0.300400
@<TRIPOS>BOND
     1     1     2 ar  
     2     1     5 ar  
     3     1    19 1   
     4     2     3 ar  
     5     2    18 1   
     6     3     4 ar  
     7     3    30 1   
     8     4    17 ar  
     9     5    17 ar  
    10     6    31 1   
    11     6    32 1   
    12     6    33 1   
    13     6    52 1   
    14     7     8 ar  
    15     7     9 ar  
    16     7    52 1   
    17     8    16 ar  
    18     8    34 1   
    19     9    10 1   
    20     9    12 ar  
    21    10    11 1   
    22    11    35 1   
    23    11    36 1   
    24    11    37 1   
    25    12    13 1   
    26    12    15 ar  
    27    13    14 1   
    28    14    38 1   
    29    14    39 1   
    30    14    40 1   
    31    15    16 ar  
    32    15    41 1   
    33    16    51 1   
    34    17    51 1   
    35    19    20 1   
    36    20    21 ar  
    37    20    25 ar  
    38    21    22 ar  
    39    21    43 1   
    40    22    23 ar  
    41    22    44 1   
    42    23    24 ar  
    43    23    45 1   
    44    24    25 ar  
    45    24    46 1   
    46    25    26 1   
    47    26    27 1   
    48    26    28 2   
    49    27    50 1   
    50    28    29 1   
    51    29    47 1   
    52    29    48 1   
    53    29    49 1   
    54    42    51 1   
@<TRIPOS>SUBSTRUCTURE
     1 EDJ         1 TEMP              0 ****  ****    0 ROOT
