@<TRIPOS>MOLECULE
EDJ
   52    54     1     0     0
SMALL
No Charge or Current Charge


@<TRIPOS>ATOM
      1 C4           2.0970    -0.4610    -0.2480 ca         1 EDJ       0.455300
      2 C5           2.0000    -1.8220    -0.5910 ca         1 EDJ      -0.197900
      3 C6           0.7170    -2.3490    -0.8010 ca         1 EDJ       0.186900
      4 N1          -0.3830    -1.5860    -0.6700 nb         1 EDJ      -0.259000
      5 N3           0.9920     0.2990    -0.1070 nb         1 EDJ      -0.325000
      6 CAB         -5.1420     3.5620    -1.5870 c3         1 EDJ       0.145900
      7 CBA         -4.8550     1.2740    -0.6770 ca         1 EDJ       0.184600
      8 CAL         -3.4520     1.4040    -0.6520 ca         1 EDJ      -0.274500
      9 CBE         -5.4720     0.0770    -0.2430 ca         1 EDJ      -0.004900
     10 OAT         -6.8670     0.0400    -0.3070 os         1 EDJ      -0.324100
     11 CAD         -7.6840    -1.0820     0.0730 c3         1 EDJ       0.146900
     12 CBB         -4.6500    -0.9930     0.2280 ca         1 EDJ       0.184600
     13 OAS         -5.2160    -2.1750     0.6750 os         1 EDJ      -0.323600
     14 CAC         -4.4420    -3.2940     1.1440 c3         1 EDJ       0.145900
     15 CAM         -3.2470    -0.8320     0.2410 ca         1 EDJ      -0.274500
     16 CAW         -2.6550     0.3500    -0.2110 ca         1 EDJ       0.385000
     17 C2          -0.1840    -0.3040    -0.3170 ca         1 EDJ       0.431900
     18 Br5          3.5520    -2.9330    -0.7750 br         1 EDJ      -0.048100
     19 OAU          3.3470     0.0720    -0.0160 os         1 EDJ      -0.333400
     20 CAZ          3.6070     1.4220    -0.0650 ca         1 EDJ       0.158100
     21 CAI          3.2230     2.1770    -1.1910 ca         1 EDJ      -0.120000
     22 CAG          3.5260     3.5470    -1.2590 ca         1 EDJ      -0.080000
     23 CAH          4.2290     4.1600    -0.2080 ca         1 EDJ      -0.124000
     24 CAJ          4.6280     3.4050     0.9080 ca         1 EDJ      -0.064000
     25 CBC          4.3110     2.0320     0.9910 ca         1 EDJ      -0.131900
     26 CAV          4.7580     1.2220     2.1580 ce         1 EDJ       0.677200
     27 OAE          6.0000     1.3690     2.6050 oh         1 EDJ      -0.663600
     28 NAP          4.0340     0.9430     3.1850 n2         1 EDJ      -0.683900
     29 CAA          2.5640     0.9800     3.1300 c3         1 EDJ       0.099100
     30 H1           0.5660    -3.3910    -1.0770 h4         1 EDJ       0.034100
     31 H2          -4.4860     3.4160    -2.4540 h1         1 EDJ       0.042367
     32 H3          -5.9620     4.2250    -1.8900 h1         1 EDJ       0.042367
     33 H4          -4.5750     4.0650    -0.7930 h1         1 EDJ       0.042367
     34 H5          -2.9690     2.3150    -0.9860 ha         1 EDJ       0.139500
     35 H6          -8.7440    -0.8450    -0.0870 h1         1 EDJ       0.032033
     36 H7          -7.4440    -1.9650    -0.5310 h1         1 EDJ       0.032033
     37 H8          -7.5530    -1.3220     1.1360 h1         1 EDJ       0.032033
     38 H9          -3.7690    -3.6600     0.3580 h1         1 EDJ       0.042367
     39 H10         -3.8450    -3.0160     2.0220 h1         1 EDJ       0.042367
     40 H11         -5.1060    -4.1180     1.4330 h1         1 EDJ       0.042367
     41 H12         -2.6060    -1.6160     0.6200 ha         1 EDJ       0.139500
     42 H13         -1.0020     1.5130    -0.1730 hn         1 EDJ       0.512000
     43 H14          2.6970     1.7010    -2.0150 ha         1 EDJ       0.133000
     44 H15          3.2250     4.1300    -2.1270 ha         1 EDJ       0.121000
     45 H16          4.4720     5.2190    -0.2620 ha         1 EDJ       0.121000
     46 H17          5.1810     3.8860     1.7130 ha         1 EDJ       0.133000
     47 H19          2.1390     0.9410     4.1410 h1         1 EDJ       0.041700
     48 H20          2.1980     1.8990     2.6520 h1         1 EDJ       0.041700
     49 H21          2.1690     0.1210     2.5710 h1         1 EDJ       0.041700
     50 H22          5.8490     1.0500     3.5170 ho         1 EDJ       0.471000
     51 NAQ         -1.2780     0.5340    -0.1950 nu         1 EDJ      -0.923900
     52 OAR         -5.6660     2.3050    -1.1230 os         1 EDJ      -0.323600
@<TRIPOS>BOND
     1     1     2 ar  
     2     1     5 ar  
     3     1    19 1   
     4     2     3 ar  
     5     2    18 1   
     6     3     4 ar  
     7     3    30 1   
     8     4    17 ar  
     9     5    17 ar  
    10     6    31 1   
    11     6    32 1   
    12     6    33 1   
    13     6    52 1   
    14     7     8 ar  
    15     7     9 ar  
    16     7    52 1   
    17     8    16 ar  
    18     8    34 1   
    19     9    10 1   
    20     9    12 ar  
    21    10    11 1   
    22    11    35 1   
    23    11    36 1   
    24    11    37 1   
    25    12    13 1   
    26    12    15 ar  
    27    13    14 1   
    28    14    38 1   
    29    14    39 1   
    30    14    40 1   
    31    15    16 ar  
    32    15    41 1   
    33    16    51 1   
    34    17    51 1   
    35    19    20 1   
    36    20    21 ar  
    37    20    25 ar  
    38    21    22 ar  
    39    21    43 1   
    40    22    23 ar  
    41    22    44 1   
    42    23    24 ar  
    43    23    45 1   
    44    24    25 ar  
    45    24    46 1   
    46    25    26 1   
    47    26    27 1   
    48    26    28 2   
    49    27    50 1   
    50    28    29 1   
    51    29    47 1   
    52    29    48 1   
    53    29    49 1   
    54    42    51 1   
@<TRIPOS>SUBSTRUCTURE
     1 EDJ         1 TEMP              0 ****  ****    0 ROOT
