@<TRIPOS>MOLECULE
EDK
   65    68     1     0     0
SMALL
No Charge or Current Charge


@<TRIPOS>ATOM
      1 O3          -4.1140    -4.1500    -0.0970 o          1 EDK      -0.714500
      2 C4           0.7540     0.5850     2.0900 ca         1 EDK      -0.169000
      3 C5          -0.5210    -0.0070     2.0680 ca         1 EDK      -0.078000
      4 C6          -0.6870    -1.3320     1.6190 ca         1 EDK      -0.088300
      5 N1          -2.4640    -1.1060    -0.7160 nu         1 EDK      -0.758200
      6 C7          -2.0770    -1.9630     1.5840 c3         1 EDK      -0.038100
      7 C8          -2.5670    -2.3170     0.1570 c3         1 EDK       0.074500
      8 N2           6.6900     1.0080    -1.1890 nb         1 EDK      -0.751000
      9 C9          -2.9760    -0.9280    -2.0050 ca         1 EDK       0.419000
     10 C10         -3.1300     0.3690    -2.5360 ca         1 EDK      -0.288600
     11 C11         -3.6060     0.5310    -3.8540 ca         1 EDK      -0.021000
     12 C12         -3.9420    -0.5880    -4.6300 ca         1 EDK      -0.216000
     13 C13         -3.7850    -1.8780    -4.1080 ca         1 EDK      -0.047000
     14 C14         -3.2940    -2.0440    -2.8040 ca         1 EDK      -0.179000
     15 C15         -2.7270     1.5940    -1.7690 c          1 EDK       0.610300
     16 C22         -4.0050    -2.9710     0.2190 c          1 EDK       0.705000
     17 O2          -4.9630    -2.2840     0.5510 o          1 EDK      -0.714500
     18 C16         -3.2080     1.8010    -0.3480 ca         1 EDK      -0.179600
     19 C21         -4.3740     1.1630     0.1330 ca         1 EDK      -0.060500
     20 C20         -4.8050     1.3710     1.4550 ca         1 EDK      -0.132500
     21 C19         -4.0890     2.2280     2.3050 ca         1 EDK      -0.106000
     22 C18         -2.9410     2.8810     1.8320 ca         1 EDK      -0.132500
     23 C17         -2.5020     2.6710     0.5130 ca         1 EDK      -0.060500
     24 O1          -2.0160     2.4340    -2.3090 o          1 EDK      -0.566100
     25 C23          0.4400    -2.0640     1.1980 ca         1 EDK      -0.078000
     26 C24          1.7160    -1.4730     1.2210 ca         1 EDK      -0.169000
     27 C3           1.8800    -0.1510     1.6630 ca         1 EDK       0.117100
     28 O            3.1550     0.3750     1.6610 os         1 EDK      -0.351100
     29 C2           3.4320     1.7260     2.0800 c3         1 EDK       0.133600
     30 C1           4.9530     2.0070     1.9440 c3         1 EDK       0.227800
     31 N            5.4880     1.9730     0.5540 nh         1 EDK      -0.779300
     32 C            5.3270     3.2160    -0.2440 c3         1 EDK       0.216100
     33 C25          6.0940     0.8160     0.0050 ca         1 EDK       0.632900
     34 C29          6.0930    -0.4430     0.6450 ca         1 EDK      -0.209000
     35 C28          6.7230    -1.5350     0.0310 ca         1 EDK      -0.044000
     36 C27          7.3370    -1.3220    -1.2090 ca         1 EDK      -0.228000
     37 C26          7.2970    -0.0420    -1.7800 ca         1 EDK       0.383900
     38 H4          -2.2360    -0.2450    -0.2300 hn         1 EDK       0.312000
     39 H5          -2.0800    -2.8760     2.1920 hc         1 EDK       0.060700
     40 H6          -2.8090    -1.2910     2.0500 hc         1 EDK       0.060700
     41 H7          -1.8970    -3.0870    -0.2480 h1         1 EDK       0.050700
     42 H8          -3.7160     1.5270    -4.2780 ha         1 EDK       0.102000
     43 H9          -4.3140    -0.4540    -5.6430 ha         1 EDK       0.096000
     44 H10         -4.0310    -2.7480    -4.7140 ha         1 EDK       0.095000
     45 H11         -3.1500    -3.0490    -2.4240 ha         1 EDK       0.135000
     46 H12         -4.9500     0.5010    -0.5110 ha         1 EDK       0.143500
     47 H13         -5.6980     0.8680     1.8180 ha         1 EDK       0.112000
     48 H14         -4.4260     2.3880     3.3270 ha         1 EDK       0.100000
     49 H15         -2.3860     3.5480     2.4880 ha         1 EDK       0.112000
     50 H16         -1.6060     3.1820     0.1640 ha         1 EDK       0.143500
     51 H17          0.3280    -3.0880     0.8510 ha         1 EDK       0.117000
     52 H18          2.5810    -2.0430     0.8930 ha         1 EDK       0.111000
     53 H19          2.8770     2.4450     1.4640 h1         1 EDK       0.037700
     54 H20          3.1380     1.8700     3.1280 h1         1 EDK       0.037700
     55 H21          5.1420     3.0020     2.3700 h1         1 EDK       0.054200
     56 H22          5.5050     1.3150     2.5920 h1         1 EDK       0.054200
     57 H23          6.3050     3.6650    -0.4610 h1         1 EDK       0.040700
     58 H24          4.8120     3.0030    -1.1910 h1         1 EDK       0.040700
     59 H25          4.7260     3.9590     0.2980 h1         1 EDK       0.040700
     60 H26          5.6060    -0.5890     1.6010 ha         1 EDK       0.120000
     61 H27          6.7330    -2.5150     0.5030 ha         1 EDK       0.107000
     62 H28          7.8390    -2.1340    -1.7280 ha         1 EDK       0.117000
     63 H29          7.7670     0.1490    -2.7440 h4         1 EDK       0.009100
     64 H2           0.8460     1.6090     2.4390 ha         1 EDK       0.111000
     65 H3          -1.3830     0.5670     2.4000 ha         1 EDK       0.117000
@<TRIPOS>BOND
     1     1    16 1   
     2     2     3 ar  
     3     2    27 ar  
     4     2    64 1   
     5     3     4 ar  
     6     3    65 1   
     7     4     6 1   
     8     4    25 ar  
     9     5     7 1   
    10     5     9 1   
    11     5    38 1   
    12     6     7 1   
    13     6    39 1   
    14     6    40 1   
    15     7    16 1   
    16     7    41 1   
    17     8    33 ar  
    18     8    37 ar  
    19     9    10 ar  
    20     9    14 ar  
    21    10    11 ar  
    22    10    15 1   
    23    11    12 ar  
    24    11    42 1   
    25    12    13 ar  
    26    12    43 1   
    27    13    14 ar  
    28    13    44 1   
    29    14    45 1   
    30    15    18 1   
    31    15    24 2   
    32    16    17 1   
    33    18    19 ar  
    34    18    23 ar  
    35    19    20 ar  
    36    19    46 1   
    37    20    21 ar  
    38    20    47 1   
    39    21    22 ar  
    40    21    48 1   
    41    22    23 ar  
    42    22    49 1   
    43    23    50 1   
    44    25    26 ar  
    45    25    51 1   
    46    26    27 ar  
    47    26    52 1   
    48    27    28 1   
    49    28    29 1   
    50    29    30 1   
    51    29    53 1   
    52    29    54 1   
    53    30    31 1   
    54    30    55 1   
    55    30    56 1   
    56    31    32 1   
    57    31    33 1   
    58    32    57 1   
    59    32    58 1   
    60    32    59 1   
    61    33    34 ar  
    62    34    35 ar  
    63    34    60 1   
    64    35    36 ar  
    65    35    61 1   
    66    36    37 ar  
    67    36    62 1   
    68    37    63 1   
@<TRIPOS>SUBSTRUCTURE
     1 EDK         1 TEMP              0 ****  ****    0 ROOT
