@<TRIPOS>MOLECULE
EDK
   65    68     1     0     0
SMALL
abcg2


@<TRIPOS>ATOM
      1 O3          -3.7410    -4.2100    -0.1010 o          1 EDK      -0.714500
      2 C4           0.7240     0.5030     1.9930 ca         1 EDK      -0.169000
      3 C5          -0.4790    -0.1910     1.9010 ca         1 EDK      -0.078000
      4 C6          -0.5360    -1.5050     1.4570 ca         1 EDK      -0.088300
      5 N1          -2.2720    -1.0000    -0.7470 nu         1 EDK      -0.758200
      6 C7          -1.8480    -2.2200     1.3020 c3         1 EDK      -0.038100
      7 C8          -2.3220    -2.3160    -0.1580 c3         1 EDK       0.074500
      8 N2           5.8740     0.4450    -1.1940 nb         1 EDK      -0.751000
      9 C9          -2.7770    -0.7090    -1.9730 ca         1 EDK       0.419000
     10 C10         -2.9970     0.6240    -2.4100 ca         1 EDK      -0.288600
     11 C11         -3.4180     0.8560    -3.7250 ca         1 EDK      -0.021000
     12 C12         -3.6700    -0.1720    -4.6090 ca         1 EDK      -0.216000
     13 C13         -3.4580    -1.4800    -4.1780 ca         1 EDK      -0.047000
     14 C14         -3.0170    -1.7450    -2.9000 ca         1 EDK      -0.179000
     15 C15         -2.7340     1.8370    -1.5960 c          1 EDK       0.610300
     16 C22         -3.7350    -2.9640    -0.1510 c          1 EDK       0.705000
     17 O2          -4.7140    -2.2000    -0.1470 o          1 EDK      -0.714500
     18 C16         -3.1130     1.8950    -0.1550 ca         1 EDK      -0.179600
     19 C21         -4.1730     1.1450     0.3530 ca         1 EDK      -0.060500
     20 C20         -4.5330     1.2610     1.6880 ca         1 EDK      -0.132500
     21 C19         -3.8310     2.1170     2.5260 ca         1 EDK      -0.106000
     22 C18         -2.7710     2.8670     2.0260 ca         1 EDK      -0.132500
     23 C17         -2.4200     2.7650     0.6910 ca         1 EDK      -0.060500
     24 O1          -2.2450     2.8250    -2.1150 o          1 EDK      -0.566100
     25 C23          0.6660    -2.1260     1.1130 ca         1 EDK      -0.078000
     26 C24          1.8720    -1.4570     1.2030 ca         1 EDK      -0.169000
     27 C3           1.9100    -0.1310     1.6400 ca         1 EDK       0.117100
     28 O            3.1270     0.4440     1.6960 os         1 EDK      -0.351100
     29 C2           3.2220     1.8330     1.9320 c3         1 EDK       0.133600
     30 C1           4.6690     2.2430     1.7200 c3         1 EDK       0.227800
     31 N            5.1690     1.9340     0.4010 nh         1 EDK      -0.779300
     32 C            4.6660     2.7560    -0.6790 c3         1 EDK       0.216100
     33 C25          5.7360     0.7260     0.1020 ca         1 EDK       0.632900
     34 C29          6.2000    -0.1730     1.0890 ca         1 EDK      -0.209000
     35 C28          6.8120    -1.3370     0.6890 ca         1 EDK      -0.044000
     36 C27          6.9630    -1.6200    -0.6690 ca         1 EDK      -0.228000
     37 C26          6.4700    -0.6860    -1.5560 ca         1 EDK       0.383900
     38 H4          -2.2250    -0.2420    -0.0900 hn         1 EDK       0.312000
     39 H5          -1.7770    -3.2360     1.6930 hc         1 EDK       0.060700
     40 H6          -2.6160    -1.7070     1.8880 hc         1 EDK       0.060700
     41 H7          -1.6320    -2.9800    -0.6920 h1         1 EDK       0.050700
     42 H8          -3.5730     1.8790    -4.0430 ha         1 EDK       0.102000
     43 H9          -4.0210     0.0360    -5.6100 ha         1 EDK       0.096000
     44 H10         -3.6360    -2.3090    -4.8520 ha         1 EDK       0.095000
     45 H11         -2.8460    -2.7730    -2.6120 ha         1 EDK       0.135000
     46 H12         -4.7090     0.4560    -0.2860 ha         1 EDK       0.143500
     47 H13         -5.3580     0.6780     2.0740 ha         1 EDK       0.112000
     48 H14         -4.1050     2.1990     3.5690 ha         1 EDK       0.100000
     49 H15         -2.2190     3.5290     2.6800 ha         1 EDK       0.112000
     50 H16         -1.5920     3.3460     0.3060 ha         1 EDK       0.143500
     51 H17          0.6570    -3.1520     0.7640 ha         1 EDK       0.117000
     52 H18          2.7970    -1.9520     0.9330 ha         1 EDK       0.111000
     53 H19          2.5670     2.3850     1.2480 h1         1 EDK       0.037700
     54 H20          2.9170     2.0870     2.9540 h1         1 EDK       0.037700
     55 H21          4.7320     3.3220     1.8750 h1         1 EDK       0.054200
     56 H22          5.3030     1.7990     2.4860 h1         1 EDK       0.054200
     57 H23          5.4200     2.8950    -1.4500 h1         1 EDK       0.040700
     58 H24          3.7740     2.3400    -1.1580 h1         1 EDK       0.040700
     59 H25          4.4080     3.7350    -0.2780 h1         1 EDK       0.040700
     60 H26          6.0840     0.0270     2.1440 ha         1 EDK       0.120000
     61 H27          7.1730    -2.0310     1.4380 ha         1 EDK       0.107000
     62 H28          7.4360    -2.5270    -1.0160 ha         1 EDK       0.117000
     63 H29          6.5520    -0.8540    -2.6250 h4         1 EDK       0.009100
     64 H2           0.7130     1.5250     2.3470 ha         1 EDK       0.111000
     65 H3          -1.3920     0.3190     2.1920 ha         1 EDK       0.117000
@<TRIPOS>BOND
     1     1    16 1   
     2     2     3 ar  
     3     2    27 ar  
     4     2    64 1   
     5     3     4 ar  
     6     3    65 1   
     7     4     6 1   
     8     4    25 ar  
     9     5     7 1   
    10     5     9 1   
    11     5    38 1   
    12     6     7 1   
    13     6    39 1   
    14     6    40 1   
    15     7    16 1   
    16     7    41 1   
    17     8    33 ar  
    18     8    37 ar  
    19     9    10 ar  
    20     9    14 ar  
    21    10    11 ar  
    22    10    15 1   
    23    11    12 ar  
    24    11    42 1   
    25    12    13 ar  
    26    12    43 1   
    27    13    14 ar  
    28    13    44 1   
    29    14    45 1   
    30    15    18 1   
    31    15    24 2   
    32    16    17 1   
    33    18    19 ar  
    34    18    23 ar  
    35    19    20 ar  
    36    19    46 1   
    37    20    21 ar  
    38    20    47 1   
    39    21    22 ar  
    40    21    48 1   
    41    22    23 ar  
    42    22    49 1   
    43    23    50 1   
    44    25    26 ar  
    45    25    51 1   
    46    26    27 ar  
    47    26    52 1   
    48    27    28 1   
    49    28    29 1   
    50    29    30 1   
    51    29    53 1   
    52    29    54 1   
    53    30    31 1   
    54    30    55 1   
    55    30    56 1   
    56    31    32 1   
    57    31    33 1   
    58    32    57 1   
    59    32    58 1   
    60    32    59 1   
    61    33    34 ar  
    62    34    35 ar  
    63    34    60 1   
    64    35    36 ar  
    65    35    61 1   
    66    36    37 ar  
    67    36    62 1   
    68    37    63 1   
@<TRIPOS>SUBSTRUCTURE
     1 EDK         1 TEMP              0 ****  ****    0 ROOT
