@<TRIPOS>MOLECULE
EDM
   28    28     1     0     0
SMALL
No Charge or Current Charge


@<TRIPOS>ATOM
      1 C23          4.1950     0.7130    -0.0120 c3         1 EDM       0.218600
      2 N21          2.7980     1.2160    -0.0590 nh         1 EDM      -0.775300
      3 C25          2.6090     2.6900    -0.1310 c3         1 EDM       0.218600
      4 C1           1.6890     0.3310    -0.0130 ca         1 EDM       0.379900
      5 C2           1.8400    -1.0690    -0.0330 ca         1 EDM      -0.249000
      6 N6           0.4610     0.8860     0.0450 nb         1 EDM      -0.227000
      7 C5          -0.6030     0.0480     0.0910 ca         1 EDM       0.032900
      8 S17         -2.2600     0.7990     0.1490 sy         1 EDM       0.988100
      9 C29         -2.6820     1.0180    -1.5840 c3         1 EDM      -0.330100
     10 O27         -3.2210    -0.1780     0.6840 o          1 EDM      -0.499500
     11 O19         -2.1630     2.1520     0.7190 o          1 EDM      -0.499500
     12 N4          -0.5440    -1.3030     0.0730 nb         1 EDM      -0.145000
     13 C3           0.6820    -1.8620     0.0130 ca         1 EDM       0.190800
     14 C13          0.7840    -3.3490    -0.0080 ce         1 EDM      -0.322800
     15 C15         -0.2570    -4.2150     0.0300 c2         1 EDM      -0.239000
     16 H23          4.3420     0.0680     0.8650 h1         1 EDM       0.046200
     17 H23A         4.4270     0.1390    -0.9180 h1         1 EDM       0.046200
     18 H23B         4.9170     1.5380     0.0600 h1         1 EDM       0.046200
     19 H25          3.5660     3.2120    -0.2690 h1         1 EDM       0.046200
     20 H25A         1.9640     2.9550    -0.9800 h1         1 EDM       0.046200
     21 H25B         2.1490     3.0650     0.7930 h1         1 EDM       0.046200
     22 H2           2.8160    -1.5360    -0.0850 ha         1 EDM       0.132000
     23 H29         -2.6770     0.0340    -2.0650 h1         1 EDM       0.105367
     24 H29A        -3.6770     1.4720    -1.6400 h1         1 EDM       0.105367
     25 H29B        -1.9310     1.6740    -2.0390 h1         1 EDM       0.105367
     26 H13          1.8050    -3.7320    -0.0590 ha         1 EDM       0.174000
     27 H15         -0.1020    -5.2960     0.0110 ha         1 EDM       0.179000
     28 H15A        -1.2960    -3.8840     0.0820 ha         1 EDM       0.179000
@<TRIPOS>BOND
     1     1     2 1   
     2     1    16 1   
     3     1    17 1   
     4     1    18 1   
     5     2     3 1   
     6     2     4 1   
     7     3    19 1   
     8     3    20 1   
     9     3    21 1   
    10     4     5 ar  
    11     4     6 ar  
    12     5    13 ar  
    13     5    22 1   
    14     6     7 ar  
    15     7     8 1   
    16     7    12 ar  
    17     8     9 1   
    18     8    10 2   
    19     8    11 2   
    20     9    23 1   
    21     9    24 1   
    22     9    25 1   
    23    12    13 ar  
    24    13    14 1   
    25    14    15 2   
    26    14    26 1   
    27    15    27 1   
    28    15    28 1   
@<TRIPOS>SUBSTRUCTURE
     1 EDM         1 TEMP              0 ****  ****    0 ROOT
