@<TRIPOS>MOLECULE
EDM
   28    28     1     0     0
SMALL
bcc


@<TRIPOS>ATOM
      1 C23          4.0100     0.7000    -0.1350 c3         1 EDM       0.218600
      2 N21          2.6370     1.1590    -0.1880 nh         1 EDM      -0.775300
      3 C25          2.3510     2.5820    -0.2140 c3         1 EDM       0.218600
      4 C1           1.6310     0.2850    -0.0860 ca         1 EDM       0.708200
      5 C2           1.8300    -1.1150     0.0040 ca         1 EDM      -0.397600
      6 N6           0.3790     0.7690    -0.0680 nb         1 EDM      -0.753000
      7 C5          -0.5790    -0.1200     0.0080 ca         1 EDM       0.558900
      8 S17         -2.2320     0.6210     0.0440 sy         1 EDM       1.018900
      9 C29         -2.3240     1.4620    -1.5190 c3         1 EDM      -0.219300
     10 O27         -3.2230    -0.4480     0.0690 o          1 EDM      -0.570300
     11 O19         -2.2400     1.6150     1.1140 o          1 EDM      -0.570300
     12 N4          -0.5310    -1.4180     0.0760 nb         1 EDM      -0.671000
     13 C3           0.7210    -1.9280     0.0800 ca         1 EDM       0.519100
     14 C13          0.8720    -3.3820     0.1630 ce         1 EDM      -0.272800
     15 C15         -0.1510    -4.2310     0.2210 c2         1 EDM      -0.139000
     16 H23          4.2580     0.2640     0.8350 h1         1 EDM       0.046200
     17 H23A         4.2120    -0.0430    -0.9080 h1         1 EDM       0.046200
     18 H23B         4.6730     1.5420    -0.3060 h1         1 EDM       0.046200
     19 H25          3.2650     3.1160    -0.4560 h1         1 EDM       0.046200
     20 H25A         1.6050     2.8190    -0.9710 h1         1 EDM       0.046200
     21 H25B         1.9840     2.9410     0.7490 h1         1 EDM       0.046200
     22 H2           2.8180    -1.5500     0.0120 ha         1 EDM       0.150000
     23 H29         -2.2230     0.7380    -2.3240 h1         1 EDM       0.105367
     24 H29A        -3.3020     1.9400    -1.5670 h1         1 EDM       0.105367
     25 H29B        -1.5380     2.2110    -1.5750 h1         1 EDM       0.105367
     26 H13          1.8890    -3.7550     0.1720 ha         1 EDM       0.124000
     27 H15          0.0160    -5.2980     0.2780 ha         1 EDM       0.129000
     28 H15A        -1.1780    -3.8900     0.2120 ha         1 EDM       0.129000
@<TRIPOS>BOND
     1     1     2 1   
     2     1    16 1   
     3     1    17 1   
     4     1    18 1   
     5     2     3 1   
     6     2     4 1   
     7     3    19 1   
     8     3    20 1   
     9     3    21 1   
    10     4     5 ar  
    11     4     6 ar  
    12     5    13 ar  
    13     5    22 1   
    14     6     7 ar  
    15     7     8 1   
    16     7    12 ar  
    17     8     9 1   
    18     8    10 2   
    19     8    11 2   
    20     9    23 1   
    21     9    24 1   
    22     9    25 1   
    23    12    13 ar  
    24    13    14 1   
    25    14    15 2   
    26    14    26 1   
    27    15    27 1   
    28    15    28 1   
@<TRIPOS>SUBSTRUCTURE
     1 EDM         1 TEMP              0 ****  ****    0 ROOT
