@<TRIPOS>MOLECULE
EDN
   12    11     1     0     0
SMALL
abcg2


@<TRIPOS>ATOM
      1 NAA          1.8890    -0.2400    -0.0050 n8         1 EDN      -0.999200
      2 CAB          0.6200     0.4720    -0.0040 c3         1 EDN       0.146800
      3 CAC         -0.5410    -0.5100    -0.0220 c3         1 EDN       0.146800
      4 NAD         -1.8100     0.2010    -0.0090 n8         1 EDN      -0.999200
      5 HAA1         2.6490     0.4240    -0.0730 hn         1 EDN       0.391750
      6 HAA2         2.0140    -0.7040     0.8860 hn         1 EDN       0.391750
      7 HAB1         0.4970     1.1500     0.8550 h1         1 EDN       0.034200
      8 HAB2         0.5660     1.0950    -0.9000 h1         1 EDN       0.034200
      9 HAC1        -0.4820    -1.1050    -0.9370 h1         1 EDN       0.034200
     10 HAC2        -0.4230    -1.2150     0.8150 h1         1 EDN       0.034200
     11 HAD1        -2.5710    -0.4600    -0.0950 hn         1 EDN       0.391750
     12 HAD2        -1.9370     0.6440     0.8930 hn         1 EDN       0.391750
@<TRIPOS>BOND
     1     1     2 1   
     2     1     5 1   
     3     1     6 1   
     4     2     3 1   
     5     2     7 1   
     6     2     8 1   
     7     3     4 1   
     8     3     9 1   
     9     3    10 1   
    10     4    11 1   
    11     4    12 1   
@<TRIPOS>SUBSTRUCTURE
     1 EDN         1 TEMP              0 ****  ****    0 ROOT
