@<TRIPOS>MOLECULE
EDN
   12    11     1     0     0
SMALL
No Charge or Current Charge


@<TRIPOS>ATOM
      1 NAA          1.9550    -0.2160    -0.0320 n8         1 EDN      -0.999200
      2 CAB          0.6420     0.4750    -0.0310 c3         1 EDN       0.146800
      3 CAC         -0.5630    -0.5120    -0.0490 c3         1 EDN       0.146800
      4 NAD         -1.8760     0.1790    -0.0360 n8         1 EDN      -0.999200
      5 HAA1         2.7020     0.4870     0.0310 hn         1 EDN       0.391750
      6 HAA2         2.0540    -0.7490     0.8410 hn         1 EDN       0.391750
      7 HAB1         0.5840     1.1090     0.8650 h1         1 EDN       0.034200
      8 HAB2         0.5920     1.1260    -0.9150 h1         1 EDN       0.034200
      9 HAC1        -0.5080    -1.1360    -0.9520 h1         1 EDN       0.034200
     10 HAC2        -0.5090    -1.1720     0.8280 h1         1 EDN       0.034200
     11 HAD1        -2.6230    -0.5260     0.0030 hn         1 EDN       0.391750
     12 HAD2        -1.9790     0.6860     0.8520 hn         1 EDN       0.391750
@<TRIPOS>BOND
     1     1     2 1   
     2     1     5 1   
     3     1     6 1   
     4     2     3 1   
     5     2     7 1   
     6     2     8 1   
     7     3     4 1   
     8     3     9 1   
     9     3    10 1   
    10     4    11 1   
    11     4    12 1   
@<TRIPOS>SUBSTRUCTURE
     1 EDN         1 TEMP              0 ****  ****    0 ROOT
