@<TRIPOS>MOLECULE
EDO
   10     9     1     0     0
SMALL
abcg2


@<TRIPOS>ATOM
      1 C1           5.1770    28.0590     5.3750 c3         1 EDO       0.162600
      2 O1           6.0750    28.4130     4.3470 oh         1 EDO      -0.649000
      3 C2           3.7760    28.4640     4.9920 c3         1 EDO       0.162600
      4 O2           3.3400    27.6960     3.8920 oh         1 EDO      -0.649000
      5 H11          5.1980    26.9800     5.5800 h1         1 EDO       0.023200
      6 H12          5.4180    28.5640     6.3190 h1         1 EDO       0.023200
      7 HO1          6.9530    28.1180     4.6020 ho         1 EDO       0.440000
      8 H21          3.1390    28.3120     5.8730 h1         1 EDO       0.023200
      9 H22          3.7580    29.5390     4.7710 h1         1 EDO       0.023200
     10 HO2          2.4630    28.0010     3.6440 ho         1 EDO       0.440000
@<TRIPOS>BOND
     1     1     2 1   
     2     1     3 1   
     3     1     5 1   
     4     1     6 1   
     5     2     7 1   
     6     3     4 1   
     7     3     8 1   
     8     3     9 1   
     9     4    10 1   
@<TRIPOS>SUBSTRUCTURE
     1 EDO         1 TEMP              0 ****  ****    0 ROOT
