@<TRIPOS>MOLECULE
EDO
   10     9     1     0     0
SMALL
No Charge or Current Charge


@<TRIPOS>ATOM
      1 C1           5.2030    28.0670     5.3830 c3         1 EDO       0.162600
      2 O1           6.1430    28.4110     4.3470 oh         1 EDO      -0.649000
      3 C2           3.7490    28.4580     4.9910 c3         1 EDO       0.162600
      4 O2           3.2800    27.6960     3.8620 oh         1 EDO      -0.649000
      5 H11          5.2400    26.9890     5.5910 h1         1 EDO       0.023200
      6 H12          5.4650    28.5890     6.3130 h1         1 EDO       0.023200
      7 HO1          7.0230    28.0880     4.6430 ho         1 EDO       0.440000
      8 H21          3.0960    28.2820     5.8560 h1         1 EDO       0.023200
      9 H22          3.7150    29.5320     4.7670 h1         1 EDO       0.023200
     10 HO2          2.3840    28.0330     3.6430 ho         1 EDO       0.440000
@<TRIPOS>BOND
     1     1     2 1   
     2     1     3 1   
     3     1     5 1   
     4     1     6 1   
     5     2     7 1   
     6     3     4 1   
     7     3     8 1   
     8     3     9 1   
     9     4    10 1   
@<TRIPOS>SUBSTRUCTURE
     1 EDO         1 TEMP              0 ****  ****    0 ROOT
