@<TRIPOS>MOLECULE
EDP
   34    34     1     0     0
SMALL
abcg2


@<TRIPOS>ATOM
      1 C1          -0.2610    -0.5370     0.2290 c6         1 EDP      -0.203000
      2 C2           0.3000     0.6450     0.9910 c          1 EDP       0.573500
      3 N3           1.5450     1.1110     0.6240 ns         1 EDP      -0.420500
      4 C4           2.4070     0.5390    -0.2530 cs         1 EDP       0.455400
      5 N5           1.9690    -0.5940    -0.8590 ns         1 EDP      -0.420500
      6 C6           0.7390    -1.1930    -0.7080 c          1 EDP       0.573500
      7 O7           0.4840    -2.2010    -1.3200 o          1 EDP      -0.488000
      8 O8          -0.3010     1.1950     1.8810 o          1 EDP      -0.488000
      9 S9           3.8950     1.1730    -0.5570 s          1 EDP      -0.517400
     10 C12         -0.7180    -1.6050     1.2450 c3         1 EDP      -0.062400
     11 C13          0.4200    -2.2630     2.0160 c3         1 EDP      -0.102100
     12 C14         -1.4440    -0.0500    -0.6860 c3         1 EDP      -0.041700
     13 C15         -0.9860     1.0250    -1.6710 c3         1 EDP      -0.103100
     14 C16         -2.6950     0.3940     0.0760 c3         1 EDP      -0.076400
     15 C17         -3.9250     0.5050    -0.8240 c3         1 EDP      -0.075400
     16 C18         -5.1840     0.8130    -0.0240 c3         1 EDP      -0.090100
     17 HN3          1.8830     1.9350     1.1070 hn         1 EDP       0.363500
     18 HN5          2.6150    -1.0320    -1.5050 hn         1 EDP       0.363500
     19 H12         -1.4000    -1.1360     1.9520 hc         1 EDP       0.069700
     20 H12A        -1.2940    -2.3590     0.7070 hc         1 EDP       0.069700
     21 H13          1.0890    -2.8330     1.3710 hc         1 EDP       0.043367
     22 H13A         1.0210    -1.5350     2.5650 hc         1 EDP       0.043367
     23 H13B         0.0120    -2.9580     2.7490 hc         1 EDP       0.043367
     24 H14         -1.7230    -0.9430    -1.2540 hc         1 EDP       0.071700
     25 H15         -0.7820     1.9740    -1.1710 hc         1 EDP       0.043700
     26 H15A        -0.0930     0.7400    -2.2300 hc         1 EDP       0.043700
     27 H15B        -1.7600     1.2140    -2.4130 hc         1 EDP       0.043700
     28 H16         -2.9280    -0.3270     0.8630 hc         1 EDP       0.053200
     29 H16A        -2.5240     1.3520     0.5720 hc         1 EDP       0.053200
     30 H17         -3.7810     1.2820    -1.5780 hc         1 EDP       0.039200
     31 H17A        -4.0580    -0.4340    -1.3710 hc         1 EDP       0.039200
     32 H18         -5.0950     1.7650     0.5020 hc         1 EDP       0.034367
     33 H18A        -6.0610     0.8740    -0.6690 hc         1 EDP       0.034367
     34 H18B        -5.3750     0.0410     0.7240 hc         1 EDP       0.034367
@<TRIPOS>BOND
     1     1     2 1   
     2     1     6 1   
     3     1    10 1   
     4     1    12 1   
     5     2     3 1   
     6     2     8 2   
     7     3     4 1   
     8     3    17 1   
     9     4     5 1   
    10     4     9 2   
    11     5     6 1   
    12     5    18 1   
    13     6     7 2   
    14    10    11 1   
    15    10    19 1   
    16    10    20 1   
    17    11    21 1   
    18    11    22 1   
    19    11    23 1   
    20    12    13 1   
    21    12    14 1   
    22    12    24 1   
    23    13    25 1   
    24    13    26 1   
    25    13    27 1   
    26    14    15 1   
    27    14    28 1   
    28    14    29 1   
    29    15    16 1   
    30    15    30 1   
    31    15    31 1   
    32    16    32 1   
    33    16    33 1   
    34    16    34 1   
@<TRIPOS>SUBSTRUCTURE
     1 EDP         1 TEMP              0 ****  ****    0 ROOT
