@<TRIPOS>MOLECULE
EDP
   34    34     1     0     0
SMALL
No Charge or Current Charge


@<TRIPOS>ATOM
      1 C1          -0.2340    -0.5360     0.1930 c6         1 EDP      -0.203000
      2 C2           0.3440     0.6820     0.9500 c          1 EDP       0.573500
      3 N3           1.6150     1.0670     0.6460 ns         1 EDP      -0.420500
      4 C4           2.4990     0.5060    -0.2070 cs         1 EDP       0.455400
      5 N5           2.0350    -0.5970    -0.8330 ns         1 EDP      -0.420500
      6 C6           0.8120    -1.1900    -0.7400 c          1 EDP       0.573500
      7 O7           0.5740    -2.2030    -1.3790 o          1 EDP      -0.488000
      8 O8          -0.2780     1.2790     1.8140 o          1 EDP      -0.488000
      9 S9           4.0330     1.1030    -0.4440 s          1 EDP      -0.517400
     10 C12         -0.6580    -1.6260     1.2540 c3         1 EDP      -0.062400
     11 C13          0.4970    -2.2380     2.0810 c3         1 EDP      -0.102100
     12 C14         -1.4690    -0.0880    -0.7120 c3         1 EDP      -0.041700
     13 C15         -1.0640     0.9980    -1.7510 c3         1 EDP      -0.103100
     14 C16         -2.7630     0.3360     0.0600 c3         1 EDP      -0.076400
     15 C17         -4.0040     0.6020    -0.8290 c3         1 EDP      -0.075400
     16 C18         -5.2830     0.8610    -0.0100 c3         1 EDP      -0.090100
     17 HN3          1.9440     1.8770     1.1520 hn         1 EDP       0.363500
     18 HN5          2.6800    -1.0520    -1.4630 hn         1 EDP       0.363500
     19 H12         -1.3670    -1.2030     1.9760 hc         1 EDP       0.069700
     20 H12A        -1.1930    -2.4460     0.7570 hc         1 EDP       0.069700
     21 H13          1.2040    -2.7820     1.4430 hc         1 EDP       0.043367
     22 H13A         1.0480    -1.4630     2.6270 hc         1 EDP       0.043367
     23 H13B         0.1000    -2.9480     2.8170 hc         1 EDP       0.043367
     24 H14         -1.7680    -0.9670    -1.3000 hc         1 EDP       0.071700
     25 H15         -0.8990     1.9670    -1.2640 hc         1 EDP       0.043700
     26 H15A        -0.1470     0.7280    -2.2870 hc         1 EDP       0.043700
     27 H15B        -1.8410     1.1290    -2.5130 hc         1 EDP       0.043700
     28 H16         -3.0440    -0.4530     0.7650 hc         1 EDP       0.053200
     29 H16A        -2.5660     1.2360     0.6550 hc         1 EDP       0.053200
     30 H17         -3.8280     1.4740    -1.4690 hc         1 EDP       0.039200
     31 H17A        -4.1720    -0.2580    -1.4890 hc         1 EDP       0.039200
     32 H18         -5.1570     1.7340     0.6420 hc         1 EDP       0.034367
     33 H18A        -6.1320     1.0520    -0.6770 hc         1 EDP       0.034367
     34 H18B        -5.5280    -0.0060     0.6150 hc         1 EDP       0.034367
@<TRIPOS>BOND
     1     1     2 1   
     2     1     6 1   
     3     1    10 1   
     4     1    12 1   
     5     2     3 1   
     6     2     8 2   
     7     3     4 1   
     8     3    17 1   
     9     4     5 1   
    10     4     9 2   
    11     5     6 1   
    12     5    18 1   
    13     6     7 2   
    14    10    11 1   
    15    10    19 1   
    16    10    20 1   
    17    11    21 1   
    18    11    22 1   
    19    11    23 1   
    20    12    13 1   
    21    12    14 1   
    22    12    24 1   
    23    13    25 1   
    24    13    26 1   
    25    13    27 1   
    26    14    15 1   
    27    14    28 1   
    28    14    29 1   
    29    15    16 1   
    30    15    30 1   
    31    15    31 1   
    32    16    32 1   
    33    16    33 1   
    34    16    34 1   
@<TRIPOS>SUBSTRUCTURE
     1 EDP         1 TEMP              0 ****  ****    0 ROOT
