@<TRIPOS>MOLECULE
EDR
   28    28     1     0     0
SMALL
No Charge or Current Charge


@<TRIPOS>ATOM
      1 C1          -0.3620     1.5830    -0.0090 ca         1 EDR      -0.128000
      2 C2          -0.0690     0.2000    -0.0390 ca         1 EDR       0.166000
      3 C3          -1.1350    -0.7200    -0.0770 ca         1 EDR      -0.221000
      4 C4          -2.4650    -0.2730    -0.0840 ca         1 EDR       0.185100
      5 C5          -2.7460     1.0990    -0.0540 ca         1 EDR      -0.096000
      6 C6          -1.6950     2.0280    -0.0170 ca         1 EDR      -0.048000
      7 O4          -3.4900    -1.1710    -0.1210 oh         1 EDR      -0.498100
      8 N2           1.3610    -0.3510    -0.0330 n4         1 EDR      -0.545000
      9 C7           1.5920    -1.1710    -1.3160 c3         1 EDR       0.082900
     10 C8           1.5570    -1.2330     1.2130 c3         1 EDR       0.082900
     11 C9           2.4130     0.7810     0.0090 c3         1 EDR       0.105600
     12 C10          3.9050     0.3900     0.0200 c3         1 EDR      -0.126100
     13 H1           0.4220     2.3320     0.0200 ha         1 EDR       0.137000
     14 H3          -0.9260    -1.7850    -0.1000 ha         1 EDR       0.127000
     15 H5          -3.7780     1.4410    -0.0600 ha         1 EDR       0.164000
     16 H6          -1.9140     3.0940     0.0070 ha         1 EDR       0.150000
     17 HO4         -3.1110    -2.0760    -0.1380 ho         1 EDR       0.482000
     18 H71          2.5980    -1.5940    -1.3030 hx         1 EDR       0.094200
     19 H72          0.8590    -1.9790    -1.3660 hx         1 EDR       0.094200
     20 H73          1.4760    -0.5180    -2.1840 hx         1 EDR       0.094200
     21 H81          1.4160    -0.6240     2.1090 hx         1 EDR       0.094200
     22 H82          0.8240    -2.0420     1.2040 hx         1 EDR       0.094200
     23 H83          2.5630    -1.6560     1.2080 hx         1 EDR       0.094200
     24 H91          2.2110     1.3760     0.9040 hx         1 EDR       0.095700
     25 H92          2.2350     1.4190    -0.8600 hx         1 EDR       0.095700
     26 H101         4.1510    -0.2160     0.8990 hc         1 EDR       0.074367
     27 H102         4.1760    -0.1720    -0.8810 hc         1 EDR       0.074367
     28 H103         4.5260     1.2930     0.0510 hc         1 EDR       0.074367
@<TRIPOS>BOND
     1     1     2 ar  
     2     1     6 ar  
     3     1    13 1   
     4     2     3 ar  
     5     2     8 1   
     6     3     4 ar  
     7     3    14 1   
     8     4     5 ar  
     9     4     7 1   
    10     5     6 ar  
    11     5    15 1   
    12     6    16 1   
    13     7    17 1   
    14     8     9 1   
    15     8    10 1   
    16     8    11 1   
    17     9    18 1   
    18     9    19 1   
    19     9    20 1   
    20    10    21 1   
    21    10    22 1   
    22    10    23 1   
    23    11    12 1   
    24    11    24 1   
    25    11    25 1   
    26    12    26 1   
    27    12    27 1   
    28    12    28 1   
@<TRIPOS>SUBSTRUCTURE
     1 EDR         1 TEMP              0 ****  ****    0 ROOT
