@<TRIPOS>MOLECULE
EDR
   28    28     1     0     0
SMALL
abcg2


@<TRIPOS>ATOM
      1 C1          -0.3070     1.5580    -0.0190 ca         1 EDR      -0.128000
      2 C2          -0.0410     0.2020    -0.0370 ca         1 EDR       0.166000
      3 C3          -1.0740    -0.7270    -0.0660 ca         1 EDR      -0.221000
      4 C4          -2.3940    -0.2950    -0.0800 ca         1 EDR       0.185100
      5 C5          -2.6770     1.0700    -0.0640 ca         1 EDR      -0.096000
      6 C6          -1.6360     1.9730    -0.0330 ca         1 EDR      -0.048000
      7 O4          -3.4290    -1.1490    -0.1080 oh         1 EDR      -0.498100
      8 N2           1.3530    -0.3280    -0.0300 n4         1 EDR      -0.545000
      9 C7           1.5720    -1.1280    -1.2770 c3         1 EDR       0.082900
     10 C8           1.5370    -1.2000     1.1740 c3         1 EDR       0.082900
     11 C9           2.3720     0.7910     0.0210 c3         1 EDR       0.105600
     12 C10          3.8210     0.3520     0.0140 c3         1 EDR      -0.126100
     13 H1           0.4640     2.3110     0.0070 ha         1 EDR       0.137000
     14 H3          -0.8790    -1.7930    -0.0810 ha         1 EDR       0.127000
     15 H5          -3.7050     1.4090    -0.0740 ha         1 EDR       0.164000
     16 H6          -1.8490     3.0330    -0.0190 ha         1 EDR       0.150000
     17 HO4         -3.1240    -2.0640    -0.1110 ho         1 EDR       0.482000
     18 H71          2.5600    -1.5750    -1.2510 hx         1 EDR       0.094200
     19 H72          0.8330    -1.9190    -1.3430 hx         1 EDR       0.094200
     20 H73          1.4820    -0.4670    -2.1350 hx         1 EDR       0.094200
     21 H81          1.4110    -0.5920     2.0660 hx         1 EDR       0.094200
     22 H82          0.8080    -2.0020     1.1690 hx         1 EDR       0.094200
     23 H83          2.5310    -1.6330     1.1550 hx         1 EDR       0.094200
     24 H91          2.1630     1.3590     0.9250 hx         1 EDR       0.095700
     25 H92          2.1810     1.4260    -0.8420 hx         1 EDR       0.095700
     26 H101         4.0950    -0.2630     0.8690 hc         1 EDR       0.074367
     27 H102         4.1120    -0.1580    -0.9020 hc         1 EDR       0.074367
     28 H103         4.4140     1.2630     0.0730 hc         1 EDR       0.074367
@<TRIPOS>BOND
     1     1     2 ar  
     2     1     6 ar  
     3     1    13 1   
     4     2     3 ar  
     5     2     8 1   
     6     3     4 ar  
     7     3    14 1   
     8     4     5 ar  
     9     4     7 1   
    10     5     6 ar  
    11     5    15 1   
    12     6    16 1   
    13     7    17 1   
    14     8     9 1   
    15     8    10 1   
    16     8    11 1   
    17     9    18 1   
    18     9    19 1   
    19     9    20 1   
    20    10    21 1   
    21    10    22 1   
    22    10    23 1   
    23    11    12 1   
    24    11    24 1   
    25    11    25 1   
    26    12    26 1   
    27    12    27 1   
    28    12    28 1   
@<TRIPOS>SUBSTRUCTURE
     1 EDR         1 TEMP              0 ****  ****    0 ROOT
