@<TRIPOS>MOLECULE
EDS
   89    91     1     0     0
SMALL
bcc


@<TRIPOS>ATOM
      1 CAQ          0.5730     0.2090    -0.0070 c6         1 EDS       0.139100
      2 CAR          0.8430    -1.2030     0.5270 c6         1 EDS       0.084700
      3 CAS         -0.5770     0.8460     0.7670 c6         1 EDS       0.133100
      4 CAT         -1.8260    -0.0380     0.7420 c6         1 EDS       0.119100
      5 CAU         -1.5550    -1.4340     1.2860 c6         1 EDS       0.168500
      6 CAV         -0.4170    -2.0570     0.4860 c6         1 EDS      -0.095400
      7 CAW          2.4910     1.2430    -0.9950 c6         1 EDS       0.314900
      8 CAX          3.9300     3.0340     0.0850 c6         1 EDS       0.205500
      9 CAY          3.9090     1.6390    -0.5550 c6         1 EDS       0.110100
     10 CAZ          3.2490     4.0420    -0.8580 c6         1 EDS       0.132800
     11 CBA          1.8720     3.5080    -1.2430 c6         1 EDS       0.104400
     12 CBB         -3.9210     1.0890     0.8620 c6         1 EDS       0.360900
     13 CBC          3.0840     5.3970    -0.1840 c3         1 EDS      -0.113100
     14 CBD         -4.5670     2.2610     1.5870 c6         1 EDS       0.133500
     15 CBE          3.0750    -2.2300     0.3020 c          1 EDS       0.640100
     16 CBF         -5.7230     2.7390     0.6970 c6         1 EDS      -0.065200
     17 CBG          4.1130    -2.7170    -0.7100 c3         1 EDS       0.067100
     18 CBI         -6.0600     0.3200     0.2510 c2         1 EDS       0.110900
     19 CBJ         -6.5070     1.5730     0.1670 c2         1 EDS      -0.295200
     20 CBK          4.2900    -4.2260    -0.6070 c3         1 EDS      -0.111400
     21 CBL         -6.8030    -0.9100    -0.1640 c3         1 EDS       0.209000
     22 CBM          5.3190    -4.7760    -1.5860 c3         1 EDS       0.150800
     23 CBN         -6.7250    -2.9270    -1.4670 c3         1 EDS       0.159800
     24 CBO         -5.8890    -3.7960    -2.3790 c3         1 EDS       0.136400
     25 NAK          1.9150    -1.8150    -0.2230 ns         1 EDS      -0.560900
     26 NAL         -2.7370    -2.2670     1.1520 n8         1 EDS      -0.891800
     27 NAM          5.2570     3.4870     0.4510 n7         1 EDS      -0.822200
     28 NAN         -4.9410     1.8790     2.9380 n8         1 EDS      -0.862800
     29 NAO         -6.0140    -1.7280    -1.0680 n7         1 EDS      -0.805200
     30 NAP          5.3410    -6.2310    -1.5220 n8         1 EDS      -0.884800
     31 OAA          1.7240     1.0070     0.1470 os         1 EDS      -0.410600
     32 OAB         -2.8170     0.6150     1.5270 os         1 EDS      -0.385600
     33 OAC          1.9320     2.2190    -1.8230 os         1 EDS      -0.413600
     34 OAD         -0.8640     2.0990     0.1960 oh         1 EDS      -0.592800
     35 OAE          4.4470     0.7130     0.3490 oh         1 EDS      -0.594800
     36 OAF          4.0820     4.1450    -2.0010 oh         1 EDS      -0.589800
     37 OAG         -4.8470     0.0140     0.7770 os         1 EDS      -0.362900
     38 OAH          3.3370    -2.2280     1.4960 o          1 EDS      -0.589100
     39 OAI          5.3130    -2.0000    -0.5000 oh         1 EDS      -0.598800
     40 OAJ         -4.7720    -4.2710    -1.6580 oh         1 EDS      -0.598800
     41 H1           0.2800     0.1400    -1.0660 h1         1 EDS       0.055700
     42 H2           1.1880    -1.1160     1.5600 h1         1 EDS       0.100700
     43 H3          -0.2550     0.9580     1.8120 h1         1 EDS       0.059700
     44 H4          -2.1700    -0.1420    -0.2970 h1         1 EDS       0.072700
     45 H5          -1.2180    -1.3300     2.3310 h1         1 EDS       0.034700
     46 H6          -0.7440    -2.1990    -0.5500 hc         1 EDS       0.058200
     47 H7          -0.1900    -3.0480     0.8850 hc         1 EDS       0.058200
     48 H8           2.5360     0.3440    -1.6210 h2         1 EDS       0.051700
     49 H9           3.3250     3.0060     0.9990 h1         1 EDS       0.077700
     50 H10          4.5130     1.6820    -1.4720 h1         1 EDS       0.056700
     51 H11          1.2140     3.5130    -0.3700 h1         1 EDS       0.058200
     52 H12          1.4160     4.1600    -1.9940 h1         1 EDS       0.058200
     53 H13         -3.6690     1.4030    -0.1630 h2         1 EDS       0.048700
     54 H14          2.6290     6.1190    -0.8670 hc         1 EDS       0.045367
     55 H15          2.4430     5.3310     0.6960 hc         1 EDS       0.045367
     56 H16          4.0520     5.7830     0.1340 hc         1 EDS       0.045367
     57 H17         -3.8230     3.0590     1.6610 h1         1 EDS       0.068700
     58 H18         -6.3720     3.4040     1.2740 hc         1 EDS       0.052700
     59 H19         -5.3370     3.3430    -0.1310 hc         1 EDS       0.052700
     60 H20          3.7980    -2.4670    -1.7270 h1         1 EDS       0.072700
     61 H21          6.6770     3.6150     1.9650 h1         1 EDS       0.030367
     62 H22          5.0140     3.6850     2.5140 h1         1 EDS       0.030367
     63 H23          5.7230     2.1320     2.0630 h1         1 EDS       0.030367
     64 H25         -7.4750     1.7490    -0.2840 ha         1 EDS       0.139000
     65 H27          4.5680    -4.4950     0.4180 hc         1 EDS       0.064200
     66 H28          3.3250    -4.7000    -0.8040 hc         1 EDS       0.064200
     67 H29         -7.1120    -1.4620     0.7400 h1         1 EDS       0.041700
     68 H30         -7.7250    -0.6080    -0.6660 h1         1 EDS       0.041700
     69 H31          5.0380    -4.4820    -2.6010 h1         1 EDS       0.034200
     70 H32          6.2950    -4.3160    -1.3870 h1         1 EDS       0.034200
     71 H33         -7.6250    -2.6360    -2.0160 h1         1 EDS       0.032200
     72 H34         -7.0710    -3.5260    -0.6070 h1         1 EDS       0.032200
     73 H35         -6.5130    -4.6200    -2.7470 h1         1 EDS       0.024700
     74 H36         -5.5840    -3.2070    -3.2530 h1         1 EDS       0.024700
     75 H37          1.7870    -1.9040    -1.2200 hn         1 EDS       0.308500
     76 H38         -2.5490    -3.1780     1.5530 hn         1 EDS       0.354300
     77 H39         -3.5020    -1.8770     1.6850 hn         1 EDS       0.354300
     78 H41          5.9420     3.1520    -0.2130 hn         1 EDS       0.369800
     79 H43         -5.2630     2.7020     3.4310 hn         1 EDS       0.341800
     80 H44         -5.7350     1.2490     2.9180 hn         1 EDS       0.341800
     81 H46         -5.1510    -1.9950    -0.6070 hn         1 EDS       0.393800
     82 H48          6.0280    -6.5810    -2.1790 hn         1 EDS       0.338300
     83 H49          5.6750    -6.5180    -0.6090 hn         1 EDS       0.338300
     84 H51         -1.1560     2.6960     0.8900 ho         1 EDS       0.412000
     85 H52          4.7850    -0.0590    -0.1230 ho         1 EDS       0.421000
     86 H53          3.6920     4.7860    -2.6040 ho         1 EDS       0.400000
     87 H54          5.6550    -2.2300     0.3730 ho         1 EDS       0.428000
     88 H55         -4.1970    -4.7430    -2.2660 ho         1 EDS       0.403000
     89 CBH          5.6830     3.1950     1.8040 c3         1 EDS       0.161100
@<TRIPOS>BOND
     1     1     2 1   
     2     1     3 1   
     3     1    31 1   
     4     1    41 1   
     5     2     6 1   
     6     2    25 1   
     7     2    42 1   
     8     3     4 1   
     9     3    34 1   
    10     3    43 1   
    11     4     5 1   
    12     4    32 1   
    13     4    44 1   
    14     5     6 1   
    15     5    26 1   
    16     5    45 1   
    17     6    46 1   
    18     6    47 1   
    19     7     9 1   
    20     7    31 1   
    21     7    33 1   
    22     7    48 1   
    23     8     9 1   
    24     8    10 1   
    25     8    27 1   
    26     8    49 1   
    27     9    35 1   
    28     9    50 1   
    29    10    11 1   
    30    10    13 1   
    31    10    36 1   
    32    11    33 1   
    33    11    51 1   
    34    11    52 1   
    35    12    14 1   
    36    12    32 1   
    37    12    37 1   
    38    12    53 1   
    39    13    54 1   
    40    13    55 1   
    41    13    56 1   
    42    14    16 1   
    43    14    28 1   
    44    14    57 1   
    45    15    17 1   
    46    15    25 1   
    47    15    38 2   
    48    16    19 1   
    49    16    58 1   
    50    16    59 1   
    51    17    20 1   
    52    17    39 1   
    53    17    60 1   
    54    18    19 2   
    55    18    21 1   
    56    18    37 1   
    57    19    64 1   
    58    20    22 1   
    59    20    65 1   
    60    20    66 1   
    61    21    29 1   
    62    21    67 1   
    63    21    68 1   
    64    22    30 1   
    65    22    69 1   
    66    22    70 1   
    67    23    24 1   
    68    23    29 1   
    69    23    71 1   
    70    23    72 1   
    71    24    40 1   
    72    24    73 1   
    73    24    74 1   
    74    25    75 1   
    75    26    76 1   
    76    26    77 1   
    77    27    78 1   
    78    27    89 1   
    79    28    79 1   
    80    28    80 1   
    81    29    81 1   
    82    30    82 1   
    83    30    83 1   
    84    34    84 1   
    85    35    85 1   
    86    36    86 1   
    87    39    87 1   
    88    40    88 1   
    89    61    89 1   
    90    62    89 1   
    91    63    89 1   
@<TRIPOS>SUBSTRUCTURE
     1 EDS         1 TEMP              0 ****  ****    0 ROOT
