@<TRIPOS>MOLECULE
EDS
   89    91     1     0     0
SMALL
No Charge or Current Charge


@<TRIPOS>ATOM
      1 CAQ          0.6280     0.2000     0.4330 c6         1 EDS       0.162300
      2 CAR          0.8450    -1.2760     0.9170 c6         1 EDS       0.084700
      3 CAS         -0.4920     0.8760     1.2930 c6         1 EDS       0.156300
      4 CAT         -1.8180     0.0630     1.1830 c6         1 EDS       0.142300
      5 CAU         -1.6070    -1.4210     1.6300 c6         1 EDS       0.168500
      6 CAV         -0.4700    -2.0890     0.8170 c6         1 EDS      -0.095400
      7 CAW          2.6640     0.9690    -0.7300 c6         1 EDS       0.361300
      8 CAX          4.1230     3.0460    -0.2010 c6         1 EDS       0.205500
      9 CAY          4.1470     1.4890    -0.4580 c6         1 EDS       0.133300
     10 CAZ          3.3130     3.7790    -1.3530 c6         1 EDS       0.156000
     11 CBA          1.8880     3.1560    -1.4280 c6         1 EDS       0.127600
     12 CBB         -4.0420     1.1020     1.1930 c6         1 EDS       0.407300
     13 CBC          3.1960     5.3090    -1.0910 c3         1 EDS      -0.113100
     14 CBD         -4.9420     2.0980     2.0160 c6         1 EDS       0.133500
     15 CBE          3.1320    -2.3510     0.7350 c          1 EDS       0.573100
     16 CBF         -6.1570     2.4670     1.1300 c6         1 EDS      -0.065200
     17 CBG          4.2470    -2.7020    -0.2990 c3         1 EDS       0.090300
     18 CBI         -6.1000     0.0480     0.4200 c2         1 EDS       0.110900
     19 CBJ         -6.7630     1.2150     0.5090 c2         1 EDS      -0.345200
     20 CBK          4.6560    -4.1930    -0.2210 c3         1 EDS      -0.111400
     21 CBL         -6.6980    -1.2630    -0.0820 c3         1 EDS       0.209000
     22 CBM          5.5990    -4.6330    -1.3590 c3         1 EDS       0.150800
     23 CBN         -6.9970    -2.6720    -2.1270 c3         1 EDS       0.159800
     24 CBO         -6.5700    -2.8090    -3.6150 c3         1 EDS       0.159600
     25 NAK          1.9250    -1.9630     0.1870 ns         1 EDS      -0.493900
     26 NAL         -2.8460    -2.2190     1.5050 n8         1 EDS      -1.002200
     27 NAM          5.5000     3.6300    -0.0560 n7         1 EDS      -0.877400
     28 NAN         -5.4280     1.5630     3.3300 n8         1 EDS      -0.973200
     29 NAO         -6.5160    -1.4000    -1.5450 n7         1 EDS      -0.860400
     30 NAP          5.9120    -6.0700    -1.2640 n8         1 EDS      -0.995200
     31 OAA          1.8590     0.9780     0.4760 os         1 EDS      -0.457000
     32 OAB         -2.8750     0.7020     1.9480 os         1 EDS      -0.432000
     33 OAC          1.9760     1.7520    -1.7520 os         1 EDS      -0.460000
     34 OAD         -0.7090     2.2570     0.9260 oh         1 EDS      -0.715000
     35 OAE          4.7950     0.7490     0.6120 oh         1 EDS      -0.717000
     36 OAF          3.9650     3.6060    -2.6310 oh         1 EDS      -0.712000
     37 OAG         -4.7900    -0.0840     0.8260 os         1 EDS      -0.386100
     38 OAH          3.3250    -2.3550     1.9440 o          1 EDS      -0.589100
     39 OAI          5.4130    -1.8600    -0.1170 oh         1 EDS      -0.661000
     40 OAJ         -5.1380    -2.7150    -3.7490 oh         1 EDS      -0.661000
     41 H1           0.2700     0.1760    -0.6070 h1         1 EDS       0.055700
     42 H2           1.1260    -1.2290     1.9800 h1         1 EDS       0.100700
     43 H3          -0.1650     0.8320     2.3430 h1         1 EDS       0.059700
     44 H4          -2.1050     0.0490     0.1200 h1         1 EDS       0.072700
     45 H5          -1.3320    -1.4190     2.6960 h1         1 EDS       0.034700
     46 H6          -0.7680    -2.1870    -0.2360 hc         1 EDS       0.058200
     47 H7          -0.2990    -3.1080     1.1910 hc         1 EDS       0.058200
     48 H8           2.7510    -0.0610    -1.1000 h2         1 EDS       0.051700
     49 H9           3.5710     3.2210     0.7360 h1         1 EDS       0.077700
     50 H10          4.7110     1.3210    -1.3880 h1         1 EDS       0.056700
     51 H11          1.3600     3.2900    -0.4730 h1         1 EDS       0.058200
     52 H12          1.2970     3.6610    -2.2050 h1         1 EDS       0.058200
     53 H13         -3.7230     1.6200     0.2760 h2         1 EDS       0.048700
     54 H14          2.5840     5.7990    -1.8580 hc         1 EDS       0.045367
     55 H15          2.7300     5.5100    -0.1190 hc         1 EDS       0.045367
     56 H16          4.1770     5.7990    -1.0960 hc         1 EDS       0.045367
     57 H17         -4.3720     3.0170     2.2230 h1         1 EDS       0.068700
     58 H18         -6.9130     3.0090     1.7170 hc         1 EDS       0.052700
     59 H19         -5.8410     3.1510     0.3300 hc         1 EDS       0.052700
     60 H20          3.8220    -2.5230    -1.2960 h1         1 EDS       0.072700
     61 H21          7.1280     4.0840     1.2310 h1         1 EDS       0.030367
     62 H22          5.5730     3.8710     2.0610 h1         1 EDS       0.030367
     63 H23          6.4680     2.4570     1.4540 h1         1 EDS       0.030367
     64 H25         -7.8030     1.2820     0.1840 ha         1 EDS       0.189000
     65 H27          5.1250    -4.3970     0.7500 hc         1 EDS       0.064200
     66 H28          3.7470    -4.8050    -0.2650 hc         1 EDS       0.064200
     67 H29         -6.2180    -2.1010     0.4430 h1         1 EDS       0.041700
     68 H30         -7.7670    -1.2920     0.1730 h1         1 EDS       0.041700
     69 H31          5.1220    -4.4400    -2.3300 h1         1 EDS       0.034200
     70 H32          6.5380    -4.0620    -1.3140 h1         1 EDS       0.034200
     71 H33         -8.0920    -2.7340    -2.0610 h1         1 EDS       0.032200
     72 H34         -6.5850    -3.5260    -1.5710 h1         1 EDS       0.032200
     73 H35         -6.9250    -3.7750    -3.9980 h1         1 EDS       0.024700
     74 H36         -7.0580    -2.0190    -4.2010 h1         1 EDS       0.024700
     75 H37          1.8370    -2.0460    -0.8200 hn         1 EDS       0.308500
     76 H38         -3.0340    -2.6770     2.4030 hn         1 EDS       0.409500
     77 H39         -3.6260    -1.5500     1.4160 hn         1 EDS       0.409500
     78 H41          6.0840     3.2360    -0.8020 hn         1 EDS       0.425000
     79 H43         -6.2680     2.0830     3.6040 hn         1 EDS       0.397000
     80 H44         -5.7830     0.6160     3.1570 hn         1 EDS       0.397000
     81 H46         -5.5060    -1.3570    -1.7370 hn         1 EDS       0.449000
     82 H48          6.5770    -6.3180    -2.0080 hn         1 EDS       0.393500
     83 H49          6.4430    -6.2420    -0.4020 hn         1 EDS       0.393500
     84 H51         -1.3330     2.6220     1.5950 ho         1 EDS       0.511000
     85 H52          5.0090    -0.1570     0.2600 ho         1 EDS       0.520000
     86 H53          3.5000     2.8580    -3.0690 ho         1 EDS       0.499000
     87 H54          5.9280    -2.2420     0.6330 ho         1 EDS       0.467000
     88 H55         -4.9370    -2.7860    -4.7080 ho         1 EDS       0.442000
     89 CBH          6.1990     3.4990     1.2390 c3         1 EDS       0.161100
@<TRIPOS>BOND
     1     1     2 1   
     2     1     3 1   
     3     1    31 1   
     4     1    41 1   
     5     2     6 1   
     6     2    25 1   
     7     2    42 1   
     8     3     4 1   
     9     3    34 1   
    10     3    43 1   
    11     4     5 1   
    12     4    32 1   
    13     4    44 1   
    14     5     6 1   
    15     5    26 1   
    16     5    45 1   
    17     6    46 1   
    18     6    47 1   
    19     7     9 1   
    20     7    31 1   
    21     7    33 1   
    22     7    48 1   
    23     8     9 1   
    24     8    10 1   
    25     8    27 1   
    26     8    49 1   
    27     9    35 1   
    28     9    50 1   
    29    10    11 1   
    30    10    13 1   
    31    10    36 1   
    32    11    33 1   
    33    11    51 1   
    34    11    52 1   
    35    12    14 1   
    36    12    32 1   
    37    12    37 1   
    38    12    53 1   
    39    13    54 1   
    40    13    55 1   
    41    13    56 1   
    42    14    16 1   
    43    14    28 1   
    44    14    57 1   
    45    15    17 1   
    46    15    25 1   
    47    15    38 2   
    48    16    19 1   
    49    16    58 1   
    50    16    59 1   
    51    17    20 1   
    52    17    39 1   
    53    17    60 1   
    54    18    19 2   
    55    18    21 1   
    56    18    37 1   
    57    19    64 1   
    58    20    22 1   
    59    20    65 1   
    60    20    66 1   
    61    21    29 1   
    62    21    67 1   
    63    21    68 1   
    64    22    30 1   
    65    22    69 1   
    66    22    70 1   
    67    23    24 1   
    68    23    29 1   
    69    23    71 1   
    70    23    72 1   
    71    24    40 1   
    72    24    73 1   
    73    24    74 1   
    74    25    75 1   
    75    26    76 1   
    76    26    77 1   
    77    27    78 1   
    78    27    89 1   
    79    28    79 1   
    80    28    80 1   
    81    29    81 1   
    82    30    82 1   
    83    30    83 1   
    84    34    84 1   
    85    35    85 1   
    86    36    86 1   
    87    39    87 1   
    88    40    88 1   
    89    61    89 1   
    90    62    89 1   
    91    63    89 1   
@<TRIPOS>SUBSTRUCTURE
     1 EDS         1 TEMP              0 ****  ****    0 ROOT
