@<TRIPOS>MOLECULE
EDT
   32    31     1     0     0
SMALL
No Charge or Current Charge


@<TRIPOS>ATOM
      1 O20          1.1830    -2.0790     4.5570 o          1 EDT      -0.770875
      2 C5           1.6460    -1.3680     3.6720 c          1 EDT       0.714750
      3 O19          2.6860    -0.7340     3.8150 o          1 EDT      -0.770875
      4 C4           0.9030    -1.3090     2.2810 c3         1 EDT       0.053800
      5 N3           0.0830    -0.0910     1.9430 n3         1 EDT      -0.666100
      6 C2          -0.9460     0.2110     2.9980 c3         1 EDT       0.053800
      7 C1          -1.8130     1.5230     2.8640 c          1 EDT       0.714750
      8 O18         -1.3150     2.5970     3.1840 o          1 EDT      -0.770875
      9 O17         -2.9700     1.4250     2.4710 o          1 EDT      -0.770875
     10 C6          -0.5110    -0.1420     0.5720 c3         1 EDT       0.176800
     11 C7           0.5040    -0.2640    -0.6120 c3         1 EDT       0.176800
     12 N8          -0.0670    -0.1080    -1.9850 n3         1 EDT      -0.666100
     13 C9           1.0010    -0.0560    -3.0420 c3         1 EDT       0.053800
     14 C10          2.1350     1.0350    -2.9300 c          1 EDT       0.714750
     15 O16          3.2430     0.6930    -2.5330 o          1 EDT      -0.770875
     16 O15          1.8840     2.1860    -3.2690 o          1 EDT      -0.770875
     17 C11         -1.1350    -1.1220    -2.3030 c3         1 EDT       0.053800
     18 C12         -1.8750    -1.0400    -3.6950 c          1 EDT       0.714750
     19 O13         -2.7510    -0.1960    -3.8510 o          1 EDT      -0.770875
     20 O14         -1.5820    -1.8510    -4.5670 o          1 EDT      -0.770875
     21 H041         1.6830    -1.4410     1.5190 h1         1 EDT      -0.004175
     22 H042         0.2590    -2.1960     2.2160 h1         1 EDT      -0.004175
     23 H021        -1.6420    -0.6360     3.0640 h1         1 EDT      -0.004175
     24 H022        -0.4480     0.2740     3.9740 h1         1 EDT      -0.004175
     25 H061        -1.2160    -0.9820     0.5190 h1         1 EDT       0.025700
     26 H062        -1.0920     0.7740     0.3980 h1         1 EDT       0.025700
     27 H071         1.2710     0.5040    -0.4520 h1         1 EDT       0.025700
     28 H072         1.0070    -1.2380    -0.5440 h1         1 EDT       0.025700
     29 H091         1.4950    -1.0370    -3.0930 h1         1 EDT      -0.004175
     30 H092         0.5270     0.0970    -4.0210 h1         1 EDT      -0.004175
     31 H111        -0.7010    -2.1280    -2.2220 h1         1 EDT      -0.004175
     32 H112        -1.9230    -1.0670    -1.5410 h1         1 EDT      -0.004175
@<TRIPOS>BOND
     1     1     2 1   
     2     2     3 1   
     3     2     4 1   
     4     4     5 1   
     5     4    21 1   
     6     4    22 1   
     7     5     6 1   
     8     5    10 1   
     9     6     7 1   
    10     6    23 1   
    11     6    24 1   
    12     7     8 1   
    13     7     9 1   
    14    10    11 1   
    15    10    25 1   
    16    10    26 1   
    17    11    12 1   
    18    11    27 1   
    19    11    28 1   
    20    12    13 1   
    21    12    17 1   
    22    13    14 1   
    23    13    29 1   
    24    13    30 1   
    25    14    15 1   
    26    14    16 1   
    27    17    18 1   
    28    17    31 1   
    29    17    32 1   
    30    18    19 1   
    31    18    20 1   
@<TRIPOS>SUBSTRUCTURE
     1 EDT         1 TEMP              0 ****  ****    0 ROOT
