@<TRIPOS>MOLECULE
EDT
   32    31     1     0     0
SMALL
abcg2


@<TRIPOS>ATOM
      1 O20          0.5330    -3.3150     3.5990 o          1 EDT      -0.770875
      2 C5           0.7590    -2.1290     3.2740 c          1 EDT       0.714750
      3 O19          1.5880    -1.3630     3.7950 o          1 EDT      -0.770875
      4 C4          -0.0620    -1.6260     2.0710 c3         1 EDT       0.053800
      5 N3          -0.0700    -0.1980     1.8410 n3         1 EDT      -0.666100
      6 C2          -0.8310     0.4940     2.8530 c3         1 EDT       0.053800
      7 C1          -0.6640     2.0250     2.8880 c          1 EDT       0.714750
      8 O18          0.2810     2.5380     2.2630 o          1 EDT      -0.770875
      9 O17         -1.5030     2.6270     3.5940 o          1 EDT      -0.770875
     10 C6          -0.5460     0.0910     0.5000 c3         1 EDT       0.176800
     11 C7           0.5680    -0.0200    -0.5360 c3         1 EDT       0.176800
     12 N8           0.0510    -0.2220    -1.8790 n3         1 EDT      -0.666100
     13 C9           0.9610     0.2630    -2.8900 c3         1 EDT       0.053800
     14 C10          1.1180     1.7920    -2.9910 c          1 EDT       0.714750
     15 O16          2.0230     2.1700    -3.7670 o          1 EDT      -0.770875
     16 O15          0.3490     2.5220    -2.3410 o          1 EDT      -0.770875
     17 C11         -0.2590    -1.6190    -2.0870 c3         1 EDT       0.053800
     18 C12         -1.1680    -1.9640    -3.2810 c          1 EDT       0.714750
     19 O13         -1.7460    -1.0430    -3.8850 o          1 EDT      -0.770875
     20 O14         -1.2670    -3.1880    -3.5180 o          1 EDT      -0.770875
     21 H041         0.3650    -2.1150     1.1860 h1         1 EDT      -0.004175
     22 H042        -1.0870    -2.0320     2.1530 h1         1 EDT      -0.004175
     23 H021        -1.9110     0.2620     2.7890 h1         1 EDT      -0.004175
     24 H022        -0.5120     0.1270     3.8330 h1         1 EDT      -0.004175
     25 H061        -1.3950    -0.5600     0.2260 h1         1 EDT       0.025700
     26 H062        -0.9250     1.1120     0.4570 h1         1 EDT       0.025700
     27 H071         1.1380     0.9070    -0.4980 h1         1 EDT       0.025700
     28 H072         1.2750    -0.8230    -0.2600 h1         1 EDT       0.025700
     29 H091         1.9710    -0.1750    -2.7790 h1         1 EDT      -0.004175
     30 H092         0.6030    -0.0760    -3.8650 h1         1 EDT      -0.004175
     31 H111         0.6590    -2.2340    -2.1610 h1         1 EDT      -0.004175
     32 H112        -0.7720    -1.9980    -1.1960 h1         1 EDT      -0.004175
@<TRIPOS>BOND
     1     1     2 1   
     2     2     3 1   
     3     2     4 1   
     4     4     5 1   
     5     4    21 1   
     6     4    22 1   
     7     5     6 1   
     8     5    10 1   
     9     6     7 1   
    10     6    23 1   
    11     6    24 1   
    12     7     8 1   
    13     7     9 1   
    14    10    11 1   
    15    10    25 1   
    16    10    26 1   
    17    11    12 1   
    18    11    27 1   
    19    11    28 1   
    20    12    13 1   
    21    12    17 1   
    22    13    14 1   
    23    13    29 1   
    24    13    30 1   
    25    14    15 1   
    26    14    16 1   
    27    17    18 1   
    28    17    31 1   
    29    17    32 1   
    30    18    19 1   
    31    18    20 1   
@<TRIPOS>SUBSTRUCTURE
     1 EDT         1 TEMP              0 ****  ****    0 ROOT
