@<TRIPOS>MOLECULE
EDU
   30    31     1     0     0
SMALL
No Charge or Current Charge


@<TRIPOS>ATOM
      1 O01         -4.3900    -1.1190     2.0230 oh         1 EDU      -0.710000
      2 C03         -4.0310    -0.9270     0.6390 c3         1 EDU       0.163600
      3 C06         -2.9940     0.2180     0.4710 c5         1 EDU       0.170300
      4 O08         -1.6970    -0.1850     0.9580 os         1 EDU      -0.433000
      5 C09         -2.6760     0.5990    -1.0060 c5         1 EDU       0.139300
      6 O10         -3.7090     1.3690    -1.6320 oh         1 EDU      -0.710000
      7 C13         -1.3780     1.4300    -0.8090 c5         1 EDU      -0.150400
      8 C16         -0.7600     0.7940     0.4760 c5         1 EDU       0.352700
      9 N18          0.5660     0.2210     0.1180 n          1 EDU      -0.315000
     10 C19          0.6670    -1.0440    -0.5070 c          1 EDU       0.625000
     11 O20         -0.2820    -1.7130    -0.8790 o          1 EDU      -0.556000
     12 N21          1.9300    -1.5000    -0.7210 ns         1 EDU      -0.470500
     13 C23          3.1130    -0.8980    -0.4260 c          1 EDU       0.598200
     14 O24          4.1740    -1.4470    -0.6870 o          1 EDU      -0.508000
     15 C25          2.9680     0.4350     0.2100 cc         1 EDU      -0.127900
     16 C26          1.7120     0.9440     0.4580 cd         1 EDU       0.023600
     17 C28          4.1490     1.1570     0.5540 cg         1 EDU      -0.148300
     18 C29          5.1360     1.7970     0.8590 c1         1 EDU      -0.209000
     19 H1          -5.0010    -1.8920     2.0580 ho         1 EDU       0.506000
     20 H2          -3.6110    -1.8490     0.2160 h1         1 EDU       0.036200
     21 H3          -4.9250    -0.6720     0.0540 h1         1 EDU       0.036200
     22 H4          -3.3350     1.0970     1.0360 h1         1 EDU       0.076700
     23 H5          -2.4680    -0.3130    -1.5850 h1         1 EDU       0.070700
     24 H6          -3.4120     1.5610    -2.5530 ho         1 EDU       0.512000
     25 H7          -0.7180     1.3800    -1.6840 hc         1 EDU       0.073700
     26 H8          -1.5950     2.4900    -0.6330 hc         1 EDU       0.073700
     27 H9          -0.5970     1.5590     1.2450 h2         1 EDU       0.065700
     28 H10          1.9960    -2.4020    -1.1650 hn         1 EDU       0.343500
     29 H11          1.5290     1.9100     0.9230 h4         1 EDU       0.213000
     30 H12          6.0120     2.3560     1.1260 ha         1 EDU       0.260000
@<TRIPOS>BOND
     1     1     2 1   
     2     1    19 1   
     3     2     3 1   
     4     2    20 1   
     5     2    21 1   
     6     3     4 1   
     7     3     5 1   
     8     3    22 1   
     9     4     8 1   
    10     5     6 1   
    11     5     7 1   
    12     5    23 1   
    13     6    24 1   
    14     7     8 1   
    15     7    25 1   
    16     7    26 1   
    17     8     9 1   
    18     8    27 1   
    19     9    10 1   
    20     9    16 1   
    21    10    11 2   
    22    10    12 1   
    23    12    13 1   
    24    12    28 1   
    25    13    14 2   
    26    13    15 1   
    27    15    16 2   
    28    15    17 1   
    29    16    29 1   
    30    17    18 3   
    31    18    30 1   
@<TRIPOS>SUBSTRUCTURE
     1 EDU         1 TEMP              0 ****  ****    0 ROOT
