@<TRIPOS>MOLECULE
EDU
   30    31     1     0     0
SMALL
bcc


@<TRIPOS>ATOM
      1 O01         -3.7110    -1.1530     2.1280 oh         1 EDU      -0.587800
      2 C03         -3.5680    -0.9930     0.7370 c3         1 EDU       0.140400
      3 C06         -2.9090     0.3320     0.4490 c5         1 EDU       0.147100
      4 O08         -1.5810     0.3340     0.9480 os         1 EDU      -0.386600
      5 C09         -2.8100     0.6350    -1.0470 c5         1 EDU       0.116100
      6 O10         -3.9650     1.3260    -1.4490 oh         1 EDU      -0.587800
      7 C13         -1.5160     1.4470    -1.1400 c5         1 EDU      -0.150400
      8 C16         -0.7460     1.1030     0.1380 c5         1 EDU       0.329500
      9 N18          0.5220     0.3890    -0.0520 n          1 EDU      -0.382000
     10 C19          0.5390    -0.8190    -0.7280 c          1 EDU       0.834500
     11 O20         -0.4500    -1.3210    -1.2100 o          1 EDU      -0.631500
     12 N21          1.7740    -1.4070    -0.8180 ns         1 EDU      -0.604500
     13 C23          2.9800    -0.9510    -0.3210 c          1 EDU       0.740700
     14 O24          4.0050    -1.5800    -0.4780 o          1 EDU      -0.583500
     15 C25          2.8710     0.3150     0.3850 cc         1 EDU      -0.127900
     16 C26          1.6560     0.9050     0.4840 cd         1 EDU       0.073600
     17 C28          4.0330     0.8960     0.9510 cg         1 EDU      -0.148300
     18 C29          5.0250     1.3850     1.4260 c1         1 EDU      -0.121500
     19 H1          -4.1330    -2.0020     2.2890 ho         1 EDU       0.407000
     20 H2          -2.9640    -1.7940     0.2910 h1         1 EDU       0.036200
     21 H3          -4.5390    -0.9950     0.2250 h1         1 EDU       0.036200
     22 H4          -3.4830     1.1390     0.9290 h1         1 EDU       0.076700
     23 H5          -2.7070    -0.2980    -1.6070 h1         1 EDU       0.070700
     24 H6          -4.0220     1.2840    -2.4080 ho         1 EDU       0.413000
     25 H7          -0.9470     1.2610    -2.0480 hc         1 EDU       0.073700
     26 H8          -1.7620     2.5100    -1.1190 hc         1 EDU       0.073700
     27 H9          -0.4540     2.0220     0.6520 h2         1 EDU       0.065700
     28 H10          1.7950    -2.2870    -1.3200 hn         1 EDU       0.343500
     29 H11          1.5410     1.8430     1.0090 h4         1 EDU       0.163000
     30 H12          5.8980     1.8300     1.8440 ha         1 EDU       0.172500
@<TRIPOS>BOND
     1     1     2 1   
     2     1    19 1   
     3     2     3 1   
     4     2    20 1   
     5     2    21 1   
     6     3     4 1   
     7     3     5 1   
     8     3    22 1   
     9     4     8 1   
    10     5     6 1   
    11     5     7 1   
    12     5    23 1   
    13     6    24 1   
    14     7     8 1   
    15     7    25 1   
    16     7    26 1   
    17     8     9 1   
    18     8    27 1   
    19     9    10 1   
    20     9    16 1   
    21    10    11 2   
    22    10    12 1   
    23    12    13 1   
    24    12    28 1   
    25    13    14 2   
    26    13    15 1   
    27    15    16 2   
    28    15    17 1   
    29    16    29 1   
    30    17    18 3   
    31    18    30 1   
@<TRIPOS>SUBSTRUCTURE
     1 EDU         1 TEMP              0 ****  ****    0 ROOT
