@<TRIPOS>MOLECULE
EDV
   33    34     1     0     0
SMALL
bcc


@<TRIPOS>ATOM
      1 O01         -3.5000    -2.3630     1.4340 oh         1 EDV      -0.578800
      2 C03         -3.4300    -1.6920     0.2010 c3         1 EDV       0.147400
      3 C06         -2.8320    -0.3250     0.4030 c5         1 EDV       0.102100
      4 O08         -1.4790    -0.4480     0.8100 os         1 EDV      -0.396600
      5 C09         -2.7920     0.5170    -0.8820 c5         1 EDV       0.113100
      6 O11         -3.8910     1.3790    -1.0190 oh         1 EDV      -0.579800
      7 C13         -1.4870     1.3210    -0.7630 c5         1 EDV      -0.107700
      8 C15         -0.6230     1.2160    -2.0110 c3         1 EDV      -0.084100
      9 C16         -0.8500     0.7650     0.5320 c5         1 EDV       0.314500
     10 N18          0.5880     0.5040     0.4440 n          1 EDV      -0.372000
     11 C19          1.4420     1.5480     0.7490 c          1 EDV       0.829500
     12 O20          1.0420     2.6420     1.0820 o          1 EDV      -0.626500
     13 N21          2.7720     1.2500     0.6380 ns         1 EDV      -0.601500
     14 C23          3.3490     0.0630     0.2230 c          1 EDV       0.740700
     15 O24          4.5540    -0.0590     0.1520 o          1 EDV      -0.584500
     16 C25          2.3790    -0.9680    -0.1050 cc         1 EDV      -0.142900
     17 C26          1.0580    -0.6960     0.0230 cd         1 EDV       0.085600
     18 C28          2.8400    -2.2360    -0.5410 cg         1 EDV      -0.142300
     19 C29          3.2330    -3.3200    -0.8850 c1         1 EDV      -0.129500
     20 H1          -3.9890    -3.1800     1.3030 ho         1 EDV       0.409000
     21 H2          -2.8210    -2.2400    -0.5330 h1         1 EDV       0.024200
     22 H3          -4.4230    -1.5570    -0.2480 h1         1 EDV       0.024200
     23 H4          -3.4030     0.2280     1.1630 h1         1 EDV       0.075700
     24 H5          -2.7210    -0.1540    -1.7490 h1         1 EDV       0.043700
     25 H6          -4.6730     0.8530    -1.2130 ho         1 EDV       0.411000
     26 H7          -1.7370     2.3710    -0.5990 hc         1 EDV       0.097700
     27 H8          -1.1920     1.5610    -2.8750 hc         1 EDV       0.044700
     28 H9           0.2700     1.8380    -1.9490 hc         1 EDV       0.044700
     29 H10         -0.3120     0.1900    -2.2180 hc         1 EDV       0.044700
     30 H11         -0.9890     1.4730     1.3530 h2         1 EDV       0.096700
     31 H12          3.4060     2.0070     0.8650 hn         1 EDV       0.346500
     32 H13          0.3160    -1.4470    -0.2010 h4         1 EDV       0.178000
     33 H14          3.5870    -4.2740    -1.2010 ha         1 EDV       0.171500
@<TRIPOS>BOND
     1     1     2 1   
     2     1    20 1   
     3     2     3 1   
     4     2    21 1   
     5     2    22 1   
     6     3     4 1   
     7     3     5 1   
     8     3    23 1   
     9     4     9 1   
    10     5     6 1   
    11     5     7 1   
    12     5    24 1   
    13     6    25 1   
    14     7     8 1   
    15     7     9 1   
    16     7    26 1   
    17     8    27 1   
    18     8    28 1   
    19     8    29 1   
    20     9    10 1   
    21     9    30 1   
    22    10    11 1   
    23    10    17 1   
    24    11    12 2   
    25    11    13 1   
    26    13    14 1   
    27    13    31 1   
    28    14    15 2   
    29    14    16 1   
    30    16    17 2   
    31    16    18 1   
    32    17    32 1   
    33    18    19 3   
    34    19    33 1   
@<TRIPOS>SUBSTRUCTURE
     1 EDV         1 TEMP              0 ****  ****    0 ROOT
