@<TRIPOS>MOLECULE
EDV
   33    34     1     0     0
SMALL
No Charge or Current Charge


@<TRIPOS>ATOM
      1 O01         -4.0470    -1.9660     1.8060 oh         1 EDV      -0.701000
      2 C03         -3.5520    -1.7040     0.4800 c3         1 EDV       0.170600
      3 C06         -2.8670    -0.3110     0.3970 c5         1 EDV       0.125300
      4 O08         -1.6060    -0.3190     1.0980 os         1 EDV      -0.443000
      5 C09         -2.4320     0.1270    -1.0320 c5         1 EDV       0.136300
      6 O11         -3.5250     0.5250    -1.8680 oh         1 EDV      -0.702000
      7 C13         -1.5230     1.3340    -0.6620 c5         1 EDV      -0.107700
      8 C15         -0.5890     1.8150    -1.8080 c3         1 EDV      -0.084100
      9 C16         -0.8750     0.8600     0.6960 c5         1 EDV       0.337700
     10 N18          0.5580     0.5250     0.4790 n          1 EDV      -0.305000
     11 C19          1.5230     1.4800     0.8450 c          1 EDV       0.620000
     12 O20          1.2460     2.5670     1.3240 o          1 EDV      -0.551000
     13 N21          2.8190     1.1340     0.6280 ns         1 EDV      -0.467500
     14 C23          3.3090    -0.0230     0.1050 c          1 EDV       0.598200
     15 O24          4.5130    -0.1850    -0.0320 o          1 EDV      -0.509000
     16 C25          2.2620    -1.0130    -0.2570 cc         1 EDV      -0.142900
     17 C26          0.9330    -0.7110    -0.0550 cd         1 EDV       0.035600
     18 C28          2.6690    -2.2630    -0.8090 cg         1 EDV      -0.142300
     19 C29          2.9830    -3.3360    -1.2830 c1         1 EDV      -0.217000
     20 H1          -4.4090    -2.8830     1.8020 ho         1 EDV       0.508000
     21 H2          -2.8300    -2.4740     0.1790 h1         1 EDV       0.024200
     22 H3          -4.3830    -1.7290    -0.2380 h1         1 EDV       0.024200
     23 H4          -3.5290     0.4400     0.8520 h1         1 EDV       0.075700
     24 H5          -1.8450    -0.6670    -1.5160 h1         1 EDV       0.043700
     25 H6          -3.8250    -0.2730    -2.3630 ho         1 EDV       0.510000
     26 H7          -2.1570     2.1990    -0.4340 hc         1 EDV       0.097700
     27 H8          -1.1750     2.1730    -2.6630 hc         1 EDV       0.044700
     28 H9           0.0500     2.6430    -1.4800 hc         1 EDV       0.044700
     29 H10          0.0590     1.0090    -2.1730 hc         1 EDV       0.044700
     30 H11         -0.9450     1.6370     1.4690 h2         1 EDV       0.096700
     31 H12          3.5050     1.8240     0.8870 hn         1 EDV       0.346500
     32 H13          0.1140    -1.3850    -0.2900 h4         1 EDV       0.228000
     33 H14          3.2670    -4.2820    -1.7000 ha         1 EDV       0.259000
@<TRIPOS>BOND
     1     1     2 1   
     2     1    20 1   
     3     2     3 1   
     4     2    21 1   
     5     2    22 1   
     6     3     4 1   
     7     3     5 1   
     8     3    23 1   
     9     4     9 1   
    10     5     6 1   
    11     5     7 1   
    12     5    24 1   
    13     6    25 1   
    14     7     8 1   
    15     7     9 1   
    16     7    26 1   
    17     8    27 1   
    18     8    28 1   
    19     8    29 1   
    20     9    10 1   
    21     9    30 1   
    22    10    11 1   
    23    10    17 1   
    24    11    12 2   
    25    11    13 1   
    26    13    14 1   
    27    13    31 1   
    28    14    15 2   
    29    14    16 1   
    30    16    17 2   
    31    16    18 1   
    32    17    32 1   
    33    18    19 3   
    34    19    33 1   
@<TRIPOS>SUBSTRUCTURE
     1 EDV         1 TEMP              0 ****  ****    0 ROOT
