@<TRIPOS>MOLECULE
EDZ
   30    31     1     0     0
SMALL
No Charge or Current Charge


@<TRIPOS>ATOM
      1 CAC          4.1100    -2.4880     0.0960 ca         1 EDZ      -0.108000
      2 CAD          2.8730    -3.0530     0.4340 ca         1 EDZ      -0.096000
      3 CAE          4.1820    -1.1370    -0.2740 ca         1 EDZ      -0.097000
      4 CAF          1.7080    -2.2690     0.4000 ca         1 EDZ      -0.096000
      5 CAG         -3.6160     2.0430     0.0230 cc         1 EDZ       0.125900
      6 CAH          3.2240     2.0710     0.5010 c3         1 EDZ       0.164600
      7 CAO         -0.7530    -0.3720     0.0510 c          1 EDZ       0.654100
      8 CAP          3.0210    -0.3390    -0.3140 ca         1 EDZ      -0.093300
      9 CAQ         -2.9300     0.8620     0.0590 cd         1 EDZ      -0.089400
     10 CAR          1.7640    -0.9080     0.0210 ca         1 EDZ      -0.033000
     11 NAJ         -4.9830     1.9120     0.0720 nc         1 EDZ      -0.276000
     12 NAK         -5.3600     0.6540     0.1450 nd         1 EDZ      -0.190100
     13 NAL         -1.5370     0.7680     0.0200 ns         1 EDZ      -0.386100
     14 NAM          0.6020    -0.0810    -0.0150 ns         1 EDZ      -0.167000
     15 OAA         -1.2200    -1.5000     0.1180 o          1 EDZ      -0.594100
     16 OAB          3.3210     3.4310     0.0640 oh         1 EDZ      -0.660000
     17 SAN         -4.0920    -0.4430     0.1590 ss         1 EDZ       0.350100
     18 H1           5.0130    -3.0950     0.1240 ha         1 EDZ       0.119000
     19 H2           2.8160    -4.0990     0.7280 ha         1 EDZ       0.121000
     20 H3           5.1490    -0.7080    -0.5280 ha         1 EDZ       0.117000
     21 H4           0.7730    -2.7390     0.6850 ha         1 EDZ       0.129000
     22 H6           2.3250     1.9360     1.1170 h1         1 EDZ       0.015200
     23 H7           4.0950     1.8050     1.1140 h1         1 EDZ       0.015200
     24 H12         -1.0050     1.6290    -0.0390 hn         1 EDZ       0.329500
     25 H13          0.8130     0.9040    -0.1000 hn         1 EDZ       0.158000
     26 H14          3.3940     3.9870     0.8720 ho         1 EDZ       0.446000
     27 CAI          3.1580     1.1310    -0.7190 c3         1 EDZ      -0.040100
     28 H5          -3.1930     3.0370    -0.0390 h4         1 EDZ       0.048100
     29 H8           2.3290     1.4340    -1.3700 hc         1 EDZ       0.066200
     30 H9           4.0660     1.2740    -1.3180 hc         1 EDZ       0.066200
@<TRIPOS>BOND
     1     1     2 ar  
     2     1     3 ar  
     3     1    18 1   
     4     2     4 ar  
     5     2    19 1   
     6     3     8 ar  
     7     3    20 1   
     8     4    10 ar  
     9     4    21 1   
    10     5     9 2   
    11     5    11 1   
    12     5    28 1   
    13     6    16 1   
    14     6    22 1   
    15     6    23 1   
    16     6    27 1   
    17     7    13 1   
    18     7    14 1   
    19     7    15 2   
    20     8    10 ar  
    21     8    27 1   
    22     9    13 1   
    23     9    17 1   
    24    10    14 1   
    25    11    12 2   
    26    12    17 1   
    27    13    24 1   
    28    14    25 1   
    29    16    26 1   
    30    27    29 1   
    31    27    30 1   
@<TRIPOS>SUBSTRUCTURE
     1 EDZ         1 TEMP              0 ****  ****    0 ROOT
