@<TRIPOS>MOLECULE
EDZ
   30    31     1     0     0
SMALL
abcg2


@<TRIPOS>ATOM
      1 CAC          3.8370    -2.5060    -0.0180 ca         1 EDZ      -0.108000
      2 CAD          2.6750    -2.9420     0.6030 ca         1 EDZ      -0.096000
      3 CAE          3.9320    -1.1950    -0.4570 ca         1 EDZ      -0.097000
      4 CAF          1.6210    -2.0620     0.7870 ca         1 EDZ      -0.096000
      5 CAG         -3.8130     1.7340     0.2350 cc         1 EDZ       0.125900
      6 CAH          3.5310     2.0450     0.2960 c3         1 EDZ       0.164600
      7 CAO         -0.6050    -0.0840     0.0760 c          1 EDZ       0.654100
      8 CAP          2.8770    -0.2970    -0.3020 ca         1 EDZ      -0.093300
      9 CAQ         -2.8180     0.8200    -0.0120 cd         1 EDZ      -0.089400
     10 CAR          1.7180    -0.7490     0.3360 ca         1 EDZ      -0.033000
     11 NAJ         -5.0090     1.3840    -0.2830 nc         1 EDZ      -0.276000
     12 NAK         -5.0200     0.2800    -0.9080 nd         1 EDZ      -0.190100
     13 NAL         -1.5180     0.8990     0.3850 ns         1 EDZ      -0.386100
     14 NAM          0.6420     0.1440     0.5430 ns         1 EDZ      -0.167000
     15 OAA         -0.9420    -1.0630    -0.5680 o          1 EDZ      -0.594100
     16 OAB          3.6300     3.3450    -0.2370 oh         1 EDZ      -0.660000
     17 SAN         -3.5020    -0.4560    -0.9140 ss         1 EDZ       0.350100
     18 H1           4.6670    -3.1860    -0.1610 ha         1 EDZ       0.119000
     19 H2           2.5900    -3.9610     0.9550 ha         1 EDZ       0.121000
     20 H3           4.8380    -0.8580    -0.9470 ha         1 EDZ       0.117000
     21 H4           0.7250    -2.3900     1.2960 ha         1 EDZ       0.129000
     22 H6           2.8560     2.0200     1.1630 h1         1 EDZ       0.015200
     23 H7           4.5020     1.6730     0.6480 h1         1 EDZ       0.015200
     24 H12         -1.2450     1.7070     0.9260 hn         1 EDZ       0.329500
     25 H13          0.8380     1.0200     1.0040 hn         1 EDZ       0.158000
     26 H14          3.9710     3.9250     0.4500 ho         1 EDZ       0.446000
     27 CAI          3.0120     1.1160    -0.7940 c3         1 EDZ      -0.040100
     28 H5          -3.7020     2.6570     0.7840 h4         1 EDZ       0.048100
     29 H8           2.0520     1.4880    -1.1620 hc         1 EDZ       0.066200
     30 H9           3.7070     1.1380    -1.6370 hc         1 EDZ       0.066200
@<TRIPOS>BOND
     1     1     2 ar  
     2     1     3 ar  
     3     1    18 1   
     4     2     4 ar  
     5     2    19 1   
     6     3     8 ar  
     7     3    20 1   
     8     4    10 ar  
     9     4    21 1   
    10     5     9 2   
    11     5    11 1   
    12     5    28 1   
    13     6    16 1   
    14     6    22 1   
    15     6    23 1   
    16     6    27 1   
    17     7    13 1   
    18     7    14 1   
    19     7    15 2   
    20     8    10 ar  
    21     8    27 1   
    22     9    13 1   
    23     9    17 1   
    24    10    14 1   
    25    11    12 2   
    26    12    17 1   
    27    13    24 1   
    28    14    25 1   
    29    16    26 1   
    30    27    29 1   
    31    27    30 1   
@<TRIPOS>SUBSTRUCTURE
     1 EDZ         1 TEMP              0 ****  ****    0 ROOT
