@<TRIPOS>MOLECULE
EE0
   18    17     1     0     0
SMALL
No Charge or Current Charge


@<TRIPOS>ATOM
      1 C28         56.0650    27.9380    -3.7390 c3         1 EE0      -0.083100
      2 C29         56.2380    26.4770    -3.2750 c3         1 EE0      -0.074400
      3 C30         56.4810    25.4630    -4.4250 c3         1 EE0      -0.100400
      4 C31         57.7890    25.6610    -5.2430 c3         1 EE0       0.019500
      5 C32         57.7790    24.7530    -6.5460 c          1 EE0       0.724000
      6 N51         58.9880    25.5230    -4.3390 n8         1 EE0      -0.989200
      7 O33         57.7620    25.3060    -7.6390 o          1 EE0      -0.734000
      8 O1          57.8570    23.5370    -6.4160 o          1 EE0      -0.734000
      9 H1          55.8110    28.5790    -2.8860 hc         1 EE0       0.023367
     10 H2          56.9880    28.3240    -4.1870 hc         1 EE0       0.023367
     11 H3          55.2580    28.0180    -4.4780 hc         1 EE0       0.023367
     12 H4          55.3290    26.1770    -2.7400 hc         1 EE0       0.014200
     13 H5          57.0550    26.4230    -2.5460 hc         1 EE0       0.014200
     14 H6          55.6290    25.5170    -5.1150 hc         1 EE0       0.042200
     15 H7          56.4690    24.4480    -4.0090 hc         1 EE0       0.042200
     16 H8          57.7900    26.6970    -5.6060 h1         1 EE0       0.042700
     17 H9          58.8010    26.0300    -3.4670 hn         1 EE0       0.373500
     18 H10         59.0620    24.5420    -4.0430 hn         1 EE0       0.373500
@<TRIPOS>BOND
     1     1     2 1   
     2     1     9 1   
     3     1    10 1   
     4     1    11 1   
     5     2     3 1   
     6     2    12 1   
     7     2    13 1   
     8     3     4 1   
     9     3    14 1   
    10     3    15 1   
    11     4     5 1   
    12     4     6 1   
    13     4    16 1   
    14     5     7 1   
    15     5     8 1   
    16     6    17 1   
    17     6    18 1   
@<TRIPOS>SUBSTRUCTURE
     1 EE0         1 TEMP              0 ****  ****    0 ROOT
