@<TRIPOS>MOLECULE
EE0
   18    17     1     0     0
SMALL
abcg2


@<TRIPOS>ATOM
      1 C28         56.1760    27.9180    -3.6740 c3         1 EE0      -0.083100
      2 C29         56.1700    26.4340    -3.3290 c3         1 EE0      -0.074400
      3 C30         56.4150    25.5180    -4.5270 c3         1 EE0      -0.100400
      4 C31         57.7640    25.7130    -5.2420 c3         1 EE0       0.019500
      5 C32         57.8320    24.7010    -6.4090 c          1 EE0       0.724000
      6 N51         58.9320    25.5820    -4.3830 n8         1 EE0      -0.989200
      7 O33         57.1800    24.9930    -7.4320 o          1 EE0      -0.734000
      8 O1          58.4860    23.6560    -6.2130 o          1 EE0      -0.734000
      9 H1          55.9270    28.5260    -2.8040 hc         1 EE0       0.023367
     10 H2          57.1510    28.2480    -4.0340 hc         1 EE0       0.023367
     11 H3          55.4460    28.1420    -4.4550 hc         1 EE0       0.023367
     12 H4          55.2050    26.1720    -2.8880 hc         1 EE0       0.014200
     13 H5          56.9080    26.2350    -2.5460 hc         1 EE0       0.014200
     14 H6          55.6100    25.6670    -5.2530 hc         1 EE0       0.042200
     15 H7          56.3440    24.4770    -4.1930 hc         1 EE0       0.042200
     16 H8          57.7760    26.7200    -5.6730 h1         1 EE0       0.042700
     17 H9          58.8030    26.1030    -3.5250 hn         1 EE0       0.373500
     18 H10         59.0260    24.6080    -4.1200 hn         1 EE0       0.373500
@<TRIPOS>BOND
     1     1     2 1   
     2     1     9 1   
     3     1    10 1   
     4     1    11 1   
     5     2     3 1   
     6     2    12 1   
     7     2    13 1   
     8     3     4 1   
     9     3    14 1   
    10     3    15 1   
    11     4     5 1   
    12     4     6 1   
    13     4    16 1   
    14     5     7 1   
    15     5     8 1   
    16     6    17 1   
    17     6    18 1   
@<TRIPOS>SUBSTRUCTURE
     1 EE0         1 TEMP              0 ****  ****    0 ROOT
