@<TRIPOS>MOLECULE
EE1
   86    90     1     0     0
SMALL
No Charge or Current Charge


@<TRIPOS>ATOM
      1 C10         24.5260    -6.5170    50.0980 c3         1 EE1      -0.145700
      2 C15         24.2760    -5.1830    49.3490 c          1 EE1       0.472100
      3 C17         22.7330    -4.8370    48.9900 c          1 EE1       0.642000
      4 C20         28.1080    -8.5450    53.5020 c5         1 EE1       0.431500
      5 C22         30.4510    -8.4350    53.6890 c5         1 EE1       0.143300
      6 C02         23.2440    -7.9030    52.7250 c          1 EE1       0.629300
      7 C04         24.6690    -7.4820    52.5140 ce         1 EE1      -0.297400
      8 C05         25.7070    -8.1010    53.1290 c2         1 EE1       0.100000
      9 C07         27.3400    -6.4690    52.3450 c2         1 EE1      -0.033000
     10 C08         26.3870    -5.7930    51.6860 c2         1 EE1      -0.232200
     11 C09         24.9310    -6.2590    51.5980 c6         1 EE1       0.070700
     12 C11         25.4460    -7.4680    49.2530 c3         1 EE1      -0.179400
     13 C12         25.2420    -8.9570    49.5900 c          1 EE1       0.714000
     14 C23         31.3970    -7.4660    52.9180 c3         1 EE1       0.206600
     15 C33         30.5270    -2.6520    49.2440 c3         1 EE1       0.234600
     16 C34         30.7010    -1.1400    48.8910 c5         1 EE1       0.132300
     17 C36         31.4800     0.9530    49.6130 c5         1 EE1       0.282300
     18 C37         31.9590     0.7430    48.1290 c5         1 EE1       0.169300
     19 C43         31.9380    -0.8270    48.0010 c5         1 EE1       0.161300
     20 C46         33.8200     0.9990    50.6300 cc         1 EE1       0.497700
     21 C48         33.5190     2.4720    52.1780 ca         1 EE1      -0.077600
     22 C49         33.6280     3.3850    53.2510 ca         1 EE1       0.395900
     23 C52         31.4060     3.8760    53.0080 ca         1 EE1       0.102900
     24 C54         32.2940     2.3290    51.5730 ca         1 EE1       0.094500
     25 C55         30.0600    -9.7600    52.9330 c5         1 EE1       0.131300
     26 C57         28.7050    -9.3180    52.2710 c5         1 EE1       0.161300
     27 N01         23.0310    -9.0060    53.4770 nt         1 EE1      -0.616000
     28 N06         27.0160    -7.6470    53.0150 nh         1 EE1      -0.535200
     29 N45         32.4780     1.4000    50.5850 na         1 EE1      -0.265300
     30 N47         34.4940     1.6470    51.6060 nd         1 EE1      -0.624100
     31 N50         34.7880     3.6040    53.9260 nv         1 EE1      -1.105900
     32 N51         32.5680     4.0900    53.6740 nb         1 EE1      -0.357000
     33 N53         31.2100     3.0260    51.9700 nb         1 EE1      -0.134000
     34 O03         22.2820    -7.2970    52.2840 o          1 EE1      -0.634100
     35 O13         24.2980    -9.5390    49.0760 o          1 EE1      -0.776000
     36 O14         26.0450    -9.5050    50.3270 o          1 EE1      -0.776000
     37 O16         25.2030    -4.4190    49.0560 o          1 EE1      -0.598100
     38 O18         22.1240    -5.5850    48.2280 o          1 EE1      -0.735000
     39 O19         22.2320    -3.8200    49.4660 o          1 EE1      -0.735000
     40 O21         29.2050    -7.7640    54.0220 os         1 EE1      -0.448000
     41 O24         30.9090    -7.2350    51.5870 os         1 EE1      -0.621400
     42 O26         31.0550    -6.0580    49.3550 o          1 EE1      -0.851500
     43 O27         32.8950    -5.7810    50.9980 o          1 EE1      -0.851500
     44 O28         30.4960    -4.8990    51.5450 os         1 EE1      -0.720800
     45 O30         32.1810    -3.3700    52.6940 o          1 EE1      -0.870000
     46 O31         29.9370    -2.5480    52.1890 o          1 EE1      -0.870000
     47 O32         31.5020    -3.0670    50.2200 os         1 EE1      -0.628400
     48 O35         30.9520    -0.3190    50.0610 os         1 EE1      -0.477000
     49 O38         30.9500     1.3550    47.2690 os         1 EE1      -0.594400
     50 O40         31.9680     0.6050    45.1180 o          1 EE1      -0.914833
     51 O41         32.4770     2.8550    45.9200 o          1 EE1      -0.914833
     52 O42         30.2620     2.3370    45.0520 o          1 EE1      -0.914833
     53 O44         31.8650    -1.3490    46.6580 oh         1 EE1      -0.784000
     54 O56         29.9110   -10.8640    53.8590 oh         1 EE1      -0.729000
     55 O58         27.9120   -10.4250    51.7560 oh         1 EE1      -0.800000
     56 P25         31.4240    -5.9300    50.7960 p5         1 EE1       1.477800
     57 P29         31.0470    -3.4330    51.7250 p5         1 EE1       1.489800
     58 P39         31.4290     1.8080    45.8040 p5         1 EE1       1.299900
     59 H1          23.5400    -6.9910    50.1100 hc         1 EE1       0.091700
     60 H2          27.7570    -9.2450    54.2720 h2         1 EE1       0.027700
     61 H3          30.9550    -8.6760    54.6350 h1         1 EE1       0.004700
     62 H5          25.5790    -8.9640    53.7840 h4         1 EE1       0.143000
     63 H7          28.3820    -6.1340    52.3870 h4         1 EE1       0.251000
     64 H9          26.6380    -4.8650    51.1700 ha         1 EE1       0.249000
     65 H11         24.2950    -5.4370    51.9600 hc         1 EE1       0.070700
     66 H12         25.1180    -7.3110    48.2180 hc         1 EE1       0.040700
     67 H13         26.4880    -7.1720    49.4190 hc         1 EE1       0.040700
     68 H14         32.3980    -7.9160    52.8800 h1         1 EE1       0.053200
     69 H15         31.4750    -6.5280    53.4850 h1         1 EE1       0.053200
     70 H16         29.5040    -2.8090    49.6110 h1         1 EE1       0.034200
     71 H17         30.6300    -3.2460    48.3270 h1         1 EE1       0.034200
     72 H18         29.7780    -0.7910    48.4060 h1         1 EE1       0.049700
     73 H19         30.6830     1.7070    49.6330 h2         1 EE1       0.078700
     74 H20         32.9490     1.1780    47.9360 h1         1 EE1       0.060700
     75 H21         32.8330    -1.2370    48.4930 h1         1 EE1       0.070700
     76 H22         34.2310     0.2580    49.9520 h5         1 EE1       0.155800
     77 H23         30.5400     4.4440    53.3410 h5         1 EE1       0.008100
     78 H24         30.8040   -10.0090    52.1630 h1         1 EE1       0.061700
     79 H25         28.9010    -8.6020    51.4610 h1         1 EE1       0.111700
     80 H26         22.0840    -9.3100    53.6440 hn         1 EE1       0.261000
     81 H27         23.8100    -9.5260    53.8480 hn         1 EE1       0.261000
     82 H29         34.7330     4.0460    54.8400 hn         1 EE1       0.476500
     83 H30         35.5460     2.9420    53.7750 hn         1 EE1       0.476500
     84 H37         31.9000    -0.5380    46.0260 ho         1 EE1       0.590000
     85 H38         30.8170   -11.1610    54.1030 ho         1 EE1       0.452000
     86 H39         27.1510   -10.0080    51.2130 ho         1 EE1       0.599000
@<TRIPOS>BOND
     1     1     2 1   
     2     1    11 1   
     3     1    12 1   
     4     1    59 1   
     5     2     3 1   
     6     2    37 2   
     7     3    38 1   
     8     3    39 1   
     9     4    26 1   
    10     4    28 1   
    11     4    40 1   
    12     4    60 1   
    13     5    14 1   
    14     5    25 1   
    15     5    40 1   
    16     5    61 1   
    17     6     7 1   
    18     6    27 1   
    19     6    34 2   
    20     7     8 2   
    21     7    11 1   
    22     8    28 1   
    23     8    62 1   
    24     9    10 2   
    25     9    28 1   
    26     9    63 1   
    27    10    11 1   
    28    10    64 1   
    29    11    65 1   
    30    12    13 1   
    31    12    66 1   
    32    12    67 1   
    33    13    35 1   
    34    13    36 1   
    35    14    41 1   
    36    14    68 1   
    37    14    69 1   
    38    15    16 1   
    39    15    47 1   
    40    15    70 1   
    41    15    71 1   
    42    16    19 1   
    43    16    48 1   
    44    16    72 1   
    45    17    18 1   
    46    17    29 1   
    47    17    48 1   
    48    17    73 1   
    49    18    19 1   
    50    18    49 1   
    51    18    74 1   
    52    19    53 1   
    53    19    75 1   
    54    20    29 1   
    55    20    30 2   
    56    20    76 1   
    57    21    22 ar  
    58    21    24 ar  
    59    21    30 1   
    60    22    31 1   
    61    22    32 ar  
    62    23    32 ar  
    63    23    33 ar  
    64    23    77 1   
    65    24    29 1   
    66    24    33 ar  
    67    25    26 1   
    68    25    54 1   
    69    25    78 1   
    70    26    55 1   
    71    26    79 1   
    72    27    80 1   
    73    27    81 1   
    74    31    82 1   
    75    31    83 1   
    76    41    56 1   
    77    42    56 1   
    78    43    56 1   
    79    44    56 1   
    80    44    57 1   
    81    45    57 1   
    82    46    57 1   
    83    47    57 1   
    84    49    58 1   
    85    50    58 1   
    86    51    58 1   
    87    52    58 1   
    88    53    84 1   
    89    54    85 1   
    90    55    86 1   
@<TRIPOS>SUBSTRUCTURE
     1 EE1         1 TEMP              0 ****  ****    0 ROOT
