@<TRIPOS>MOLECULE
EE1
   86    90     1     0     0
SMALL
abcg2


@<TRIPOS>ATOM
      1 C10         24.3320    -7.9840    50.2800 c3         1 EE1      -0.145700
      2 C15         23.9380    -7.1540    49.0770 c          1 EE1       0.472100
      3 C17         22.8020    -6.1360    49.2780 c          1 EE1       0.642000
      4 C20         28.6170    -8.0060    52.8400 c5         1 EE1       0.431500
      5 C22         30.7690    -7.0920    52.5280 c5         1 EE1       0.143300
      6 C02         23.7530    -8.2880    53.4970 c          1 EE1       0.629300
      7 C04         24.9250    -7.8020    52.7590 ce         1 EE1      -0.297400
      8 C05         26.1920    -8.0640    53.1580 c2         1 EE1       0.100000
      9 C07         27.0960    -6.4820    51.6330 c2         1 EE1      -0.033000
     10 C08         25.8830    -6.1840    51.1690 c2         1 EE1      -0.232200
     11 C09         24.6780    -7.0300    51.4800 c6         1 EE1       0.070700
     12 C11         25.4200    -9.0080    49.9750 c3         1 EE1      -0.179400
     13 C12         25.3480   -10.2910    50.8110 c          1 EE1       0.714000
     14 C23         31.0660    -5.9580    51.5720 c3         1 EE1       0.206600
     15 C33         29.1250    -0.9810    49.0430 c3         1 EE1       0.234600
     16 C34         30.0920     0.1160    48.6750 c5         1 EE1       0.132300
     17 C36         31.4080     1.6380    49.8800 c5         1 EE1       0.282300
     18 C37         32.2680     1.0510    48.7540 c5         1 EE1       0.169300
     19 C43         31.5600    -0.2920    48.5110 c5         1 EE1       0.161300
     20 C46         31.5450     0.2170    52.0030 cc         1 EE1       0.497700
     21 C48         33.0430     1.2760    53.0980 ca         1 EE1      -0.077600
     22 C49         33.9980     1.7900    53.9950 ca         1 EE1       0.395900
     23 C52         34.3900     3.4820    52.4660 ca         1 EE1       0.102900
     24 C54         32.8650     1.9790    51.9070 ca         1 EE1       0.094500
     25 C55         30.7610    -8.5000    51.9140 c5         1 EE1       0.131300
     26 C57         29.2760    -8.7360    51.6540 c5         1 EE1       0.161300
     27 N01         23.9410    -8.9790    54.6600 nt         1 EE1      -0.616000
     28 N06         27.2850    -7.5130    52.5600 nh         1 EE1      -0.535200
     29 N45         31.8990     1.2890    51.2160 na         1 EE1      -0.265300
     30 N47         32.2040     0.1760    53.1390 nd         1 EE1      -0.624100
     31 N50         34.2850     1.2060    55.1710 nv         1 EE1      -1.105900
     32 N51         34.6610     2.9090    53.6440 nb         1 EE1      -0.357000
     33 N53         33.5170     3.0900    51.5400 nb         1 EE1      -0.134000
     34 O03         22.6050    -8.1030    53.0690 o          1 EE1      -0.634100
     35 O13         24.2220   -10.7930    51.0270 o          1 EE1      -0.776000
     36 O14         26.4470   -10.8070    51.1810 o          1 EE1      -0.776000
     37 O16         24.4480    -7.2790    47.9740 o          1 EE1      -0.598100
     38 O18         21.6690    -6.6440    49.4450 o          1 EE1      -0.735000
     39 O19         23.1170    -4.9270    49.2340 o          1 EE1      -0.735000
     40 O21         29.4730    -6.9170    53.1470 os         1 EE1      -0.448000
     41 O24         30.2370    -6.0720    50.4110 os         1 EE1      -0.621400
     42 O26         29.7740    -5.5730    48.0120 o          1 EE1      -0.851500
     43 O27         31.4630    -4.1100    49.3360 o          1 EE1      -0.851500
     44 O28         28.9250    -4.0080    49.7460 os         1 EE1      -0.720800
     45 O30         29.4190    -3.2120    52.1420 o          1 EE1      -0.870000
     46 O31         27.2520    -2.5540    50.8760 o          1 EE1      -0.870000
     47 O32         29.5400    -1.6020    50.2580 os         1 EE1      -0.628400
     48 O35         30.1040     1.1280    49.7110 os         1 EE1      -0.477000
     49 O38         32.1530     1.9120    47.6420 os         1 EE1      -0.594400
     50 O40         33.5030     0.5600    45.9730 o          1 EE1      -0.914833
     51 O41         34.6500     2.3880    47.3310 o          1 EE1      -0.914833
     52 O42         32.9110     3.0190    45.5440 o          1 EE1      -0.914833
     53 O44         31.8230    -0.9240    47.2860 oh         1 EE1      -0.784000
     54 O56         31.2260    -9.4770    52.8450 oh         1 EE1      -0.729000
     55 O58         28.9410   -10.0910    51.5580 oh         1 EE1      -0.800000
     56 P25         30.2050    -4.9100    49.2770 p5         1 EE1       1.477800
     57 P29         28.7150    -2.8540    50.8770 p5         1 EE1       1.489800
     58 P39         33.4220     1.9920    46.5330 p5         1 EE1       1.299900
     59 H1          23.4230    -8.5150    50.5740 hc         1 EE1       0.091700
     60 H2          28.5300    -8.6890    53.6890 h2         1 EE1       0.027700
     61 H3          31.5210    -7.0480    53.3210 h1         1 EE1       0.004700
     62 H5          26.4240    -8.7230    53.9830 h4         1 EE1       0.143000
     63 H7          27.9880    -5.9400    51.3660 h4         1 EE1       0.251000
     64 H9          25.7700    -5.3410    50.5000 ha         1 EE1       0.249000
     65 H11         23.8060    -6.3910    51.6230 hc         1 EE1       0.070700
     66 H12         25.3160    -9.3230    48.9330 hc         1 EE1       0.040700
     67 H13         26.4100    -8.5620    50.0590 hc         1 EE1       0.040700
     68 H14         32.1180    -6.0100    51.2790 h1         1 EE1       0.053200
     69 H15         30.8790    -5.0060    52.0690 h1         1 EE1       0.053200
     70 H16         28.1190    -0.5740    49.1620 h1         1 EE1       0.034200
     71 H17         29.1090    -1.7110    48.2280 h1         1 EE1       0.034200
     72 H18         29.7490     0.5670    47.7390 h1         1 EE1       0.049700
     73 H19         31.4020     2.7260    49.8220 h2         1 EE1       0.078700
     74 H20         33.3090     0.9420    49.0610 h1         1 EE1       0.060700
     75 H21         31.8240    -0.9670    49.3330 h1         1 EE1       0.070700
     76 H22         30.7940    -0.4860    51.6800 h5         1 EE1       0.155800
     77 H23         34.9560     4.3800    52.2400 h5         1 EE1       0.008100
     78 H24         31.3480    -8.5400    50.9940 h1         1 EE1       0.061700
     79 H25         29.0160    -8.1900    50.7420 h1         1 EE1       0.111700
     80 H26         23.1140    -9.1850    55.1980 hn         1 EE1       0.261000
     81 H27         24.8010    -8.9140    55.1780 hn         1 EE1       0.261000
     82 H29         34.9170     1.6580    55.8100 hn         1 EE1       0.476500
     83 H30         33.7470     0.4200    55.4950 hn         1 EE1       0.476500
     84 H37         32.4600    -0.3560    46.7440 ho         1 EE1       0.590000
     85 H38         32.1540    -9.2900    53.0320 ho         1 EE1       0.452000
     86 H39         27.9720   -10.2060    51.3460 ho         1 EE1       0.599000
@<TRIPOS>BOND
     1     1     2 1   
     2     1    11 1   
     3     1    12 1   
     4     1    59 1   
     5     2     3 1   
     6     2    37 2   
     7     3    38 1   
     8     3    39 1   
     9     4    26 1   
    10     4    28 1   
    11     4    40 1   
    12     4    60 1   
    13     5    14 1   
    14     5    25 1   
    15     5    40 1   
    16     5    61 1   
    17     6     7 1   
    18     6    27 1   
    19     6    34 2   
    20     7     8 2   
    21     7    11 1   
    22     8    28 1   
    23     8    62 1   
    24     9    10 2   
    25     9    28 1   
    26     9    63 1   
    27    10    11 1   
    28    10    64 1   
    29    11    65 1   
    30    12    13 1   
    31    12    66 1   
    32    12    67 1   
    33    13    35 1   
    34    13    36 1   
    35    14    41 1   
    36    14    68 1   
    37    14    69 1   
    38    15    16 1   
    39    15    47 1   
    40    15    70 1   
    41    15    71 1   
    42    16    19 1   
    43    16    48 1   
    44    16    72 1   
    45    17    18 1   
    46    17    29 1   
    47    17    48 1   
    48    17    73 1   
    49    18    19 1   
    50    18    49 1   
    51    18    74 1   
    52    19    53 1   
    53    19    75 1   
    54    20    29 1   
    55    20    30 2   
    56    20    76 1   
    57    21    22 ar  
    58    21    24 ar  
    59    21    30 1   
    60    22    31 1   
    61    22    32 ar  
    62    23    32 ar  
    63    23    33 ar  
    64    23    77 1   
    65    24    29 1   
    66    24    33 ar  
    67    25    26 1   
    68    25    54 1   
    69    25    78 1   
    70    26    55 1   
    71    26    79 1   
    72    27    80 1   
    73    27    81 1   
    74    31    82 1   
    75    31    83 1   
    76    41    56 1   
    77    42    56 1   
    78    43    56 1   
    79    44    56 1   
    80    44    57 1   
    81    45    57 1   
    82    46    57 1   
    83    47    57 1   
    84    49    58 1   
    85    50    58 1   
    86    51    58 1   
    87    52    58 1   
    88    53    84 1   
    89    54    85 1   
    90    55    86 1   
@<TRIPOS>SUBSTRUCTURE
     1 EE1         1 TEMP              0 ****  ****    0 ROOT
