@<TRIPOS>MOLECULE
EE2
   47    50     1     0     0
SMALL
No Charge or Current Charge


@<TRIPOS>ATOM
      1 C1          -3.1770    -3.4140     1.4360 ca         1 EE2      -0.116000
      2 C2          -4.5090    -3.8620     1.3030 ca         1 EE2      -0.138000
      3 C3          -2.8010    -2.1530     0.9350 ca         1 EE2      -0.081000
      4 C4          -0.6470    -0.6610    -0.9730 ca         1 EE2      -0.117000
      5 C5          -5.4740    -3.0440     0.6820 ca         1 EE2      -0.113000
      6 C6           0.7310    -0.9220    -0.9310 ca         1 EE2      -0.155000
      7 C7          -3.7730    -1.3720     0.2870 ca         1 EE2       0.008200
      8 C8          -1.1690     0.5370    -0.4450 ca         1 EE2      -0.096800
      9 C9          -0.2880     1.4980     0.1150 ca         1 EE2      -0.087600
     10 C10         -5.0850    -1.7890     0.1860 ca         1 EE2      -0.098300
     11 C11          1.6050     0.0200    -0.3720 ca         1 EE2       0.068100
     12 C12          1.0950     1.2290     0.1660 ca         1 EE2       0.058100
     13 C13         -3.6780    -0.0270    -0.2830 ce         1 EE2      -0.134400
     14 C14         -2.6190     0.8040    -0.5300 cf         1 EE2      -0.012200
     15 C15         -0.8120     2.7890     0.6850 c          1 EE2       0.727600
     16 C16          7.3350    -0.9610    -0.5590 c          1 EE2       0.716000
     17 C17         -5.9880    -0.7620    -0.4810 c5         1 EE2      -0.063100
     18 C18          3.2880     1.7080     1.0630 c6         1 EE2       0.117600
     19 C19         -5.0730     0.5340    -0.6070 c5         1 EE2       0.204500
     20 C20          3.8550     0.8560    -0.0960 c6         1 EE2       0.126300
     21 C22          5.2650     0.2760     0.2140 c3         1 EE2      -0.047400
     22 O23         -1.0150     3.7180    -0.0850 o          1 EE2      -0.716500
     23 O24          8.2670    -0.2000    -0.7720 o          1 EE2      -0.752000
     24 O25         -1.0760     2.8290     1.8800 o          1 EE2      -0.716500
     25 O26          7.4600    -2.0410    -0.0010 o          1 EE2      -0.752000
     26 O27          1.9540     2.1510     0.7380 os         1 EE2      -0.308100
     27 O28          2.9600    -0.2460    -0.3620 os         1 EE2      -0.336100
     28 O29         -5.1520     1.1030    -1.9140 oh         1 EE2      -0.652000
     29 H1          -2.4410    -4.0400     1.9360 ha         1 EE2       0.102000
     30 H2          -4.7960    -4.8350     1.6950 ha         1 EE2       0.090000
     31 H3          -1.7850    -1.7930     1.0690 ha         1 EE2       0.143000
     32 H5          -6.5060    -3.3760     0.5950 ha         1 EE2       0.090000
     33 H4          -1.3130    -1.3890    -1.4300 ha         1 EE2       0.095000
     34 H6           1.1230    -1.8480    -1.3450 ha         1 EE2       0.109000
     35 H14         -2.8470     1.8000    -0.9130 ha         1 EE2       0.196000
     36 H171        -6.3220    -1.1210    -1.4610 hc         1 EE2       0.042200
     37 H172        -6.8880    -0.5580     0.1090 hc         1 EE2       0.042200
     38 H19         -5.3620     1.2780     0.1500 h1         1 EE2       0.045700
     39 H211         5.9680     0.1960    -1.7970 hc         1 EE2       0.026200
     40 H212         5.2790    -1.3760    -1.1390 hc         1 EE2       0.026200
     41 H181         3.2480     1.1060     1.9820 h1         1 EE2       0.053200
     42 H182         3.9240     2.5850     1.2500 h1         1 EE2       0.053200
     43 H29         -6.0860     1.3740    -2.0440 ho         1 EE2       0.416000
     44 H221         5.9330     1.1010     0.4930 hc         1 EE2       0.046200
     45 H222         5.2080    -0.3780     1.0930 hc         1 EE2       0.046200
     46 H20          3.9170     1.4830    -0.9980 h1         1 EE2       0.047700
     47 C21          5.9210    -0.5060    -0.9550 c3         1 EE2      -0.203400
@<TRIPOS>BOND
     1     1     2 ar  
     2     1     3 ar  
     3     1    29 1   
     4     2     5 ar  
     5     2    30 1   
     6     3     7 ar  
     7     3    31 1   
     8     4     6 ar  
     9     4     8 ar  
    10     4    33 1   
    11     5    10 ar  
    12     5    32 1   
    13     6    11 ar  
    14     6    34 1   
    15     7    10 ar  
    16     7    13 1   
    17     8     9 ar  
    18     8    14 1   
    19     9    12 ar  
    20     9    15 1   
    21    10    17 1   
    22    11    12 ar  
    23    11    27 1   
    24    12    26 1   
    25    13    14 2   
    26    13    19 1   
    27    14    35 1   
    28    15    22 1   
    29    15    24 1   
    30    16    23 1   
    31    16    25 1   
    32    16    47 1   
    33    17    19 1   
    34    17    36 1   
    35    17    37 1   
    36    18    20 1   
    37    18    26 1   
    38    18    41 1   
    39    18    42 1   
    40    19    28 1   
    41    19    38 1   
    42    20    21 1   
    43    20    27 1   
    44    20    46 1   
    45    21    44 1   
    46    21    45 1   
    47    21    47 1   
    48    28    43 1   
    49    39    47 1   
    50    40    47 1   
@<TRIPOS>SUBSTRUCTURE
     1 EE2         1 TEMP              0 ****  ****    0 ROOT
