@<TRIPOS>MOLECULE
EE2
   47    50     1     0     0
SMALL
abcg2


@<TRIPOS>ATOM
      1 C1          -3.0990    -3.3410     1.2820 ca         1 EE2      -0.116000
      2 C2          -4.4380    -3.5830     1.5740 ca         1 EE2      -0.138000
      3 C3          -2.7190    -2.2030     0.5840 ca         1 EE2      -0.081000
      4 C4          -0.5400    -0.6320    -1.3020 ca         1 EE2      -0.117000
      5 C5          -5.4130    -2.6740     1.1810 ca         1 EE2      -0.113000
      6 C6           0.8190    -0.8720    -1.2110 ca         1 EE2      -0.155000
      7 C7          -3.6930    -1.2940     0.1720 ca         1 EE2       0.008200
      8 C8          -1.1170     0.4780    -0.6830 ca         1 EE2      -0.096800
      9 C9          -0.3040     1.3590     0.0350 ca         1 EE2      -0.087600
     10 C10         -5.0350    -1.5350     0.4910 ca         1 EE2      -0.098300
     11 C11          1.6290    -0.0030    -0.4900 ca         1 EE2       0.068100
     12 C12          1.0570     1.1030     0.1410 ca         1 EE2       0.058100
     13 C13         -3.5950    -0.0130    -0.5400 ce         1 EE2      -0.134400
     14 C14         -2.5510     0.7670    -0.8430 cf         1 EE2      -0.012200
     15 C15         -0.8900     2.5860     0.7210 c          1 EE2       0.727600
     16 C16          7.2820    -0.8530    -0.5310 c          1 EE2       0.716000
     17 C17         -5.9060    -0.3960     0.0500 c5         1 EE2      -0.063100
     18 C18          3.0930     1.4770     1.2170 c6         1 EE2       0.117600
     19 C19         -5.0080     0.4060    -0.9020 c5         1 EE2       0.204500
     20 C20          3.7690     0.8240     0.0280 c6         1 EE2       0.126300
     21 C22          5.1410     0.2820     0.3720 c3         1 EE2      -0.047400
     22 O23         -1.0940     3.5690    -0.0130 o          1 EE2      -0.716500
     23 O24          7.7420    -0.6980     0.6170 o          1 EE2      -0.752000
     24 O25         -1.1160     2.4790     1.9370 o          1 EE2      -0.716500
     25 O26          7.8690    -1.3810    -1.4990 o          1 EE2      -0.752000
     26 O27          1.8140     1.9720     0.8600 os         1 EE2      -0.308100
     27 O28          2.9570    -0.2560    -0.4300 os         1 EE2      -0.336100
     28 O29         -5.2020     0.0390    -2.2560 oh         1 EE2      -0.652000
     29 H1          -2.3430    -4.0490     1.5970 ha         1 EE2       0.102000
     30 H2          -4.7200    -4.4790     2.1120 ha         1 EE2       0.090000
     31 H3          -1.6740    -2.0380     0.3660 ha         1 EE2       0.143000
     32 H5          -6.4550    -2.8530     1.4190 ha         1 EE2       0.090000
     33 H4          -1.1610    -1.3050    -1.8800 ha         1 EE2       0.095000
     34 H6           1.2660    -1.7260    -1.7040 ha         1 EE2       0.109000
     35 H14         -2.7850     1.7440    -1.2560 ha         1 EE2       0.196000
     36 H171        -6.8360    -0.7180    -0.4240 hc         1 EE2       0.042200
     37 H172        -6.1890     0.2120     0.9140 hc         1 EE2       0.042200
     38 H19         -5.1470     1.4850    -0.7700 h1         1 EE2       0.045700
     39 H211         5.8970     0.3590    -1.6420 hc         1 EE2       0.026200
     40 H212         5.2720    -1.2010    -1.1920 hc         1 EE2       0.026200
     41 H181         3.0060     0.7590     2.0420 h1         1 EE2       0.053200
     42 H182         3.6770     2.3290     1.5630 h1         1 EE2       0.053200
     43 H29         -6.1020     0.2780    -2.5010 ho         1 EE2       0.416000
     44 H221         5.7350     1.1170     0.7520 hc         1 EE2       0.046200
     45 H222         5.0530    -0.4320     1.1960 hc         1 EE2       0.046200
     46 H20          3.8570     1.5660    -0.7780 h1         1 EE2       0.047700
     47 C21          5.8520    -0.3550    -0.8120 c3         1 EE2      -0.203400
@<TRIPOS>BOND
     1     1     2 ar  
     2     1     3 ar  
     3     1    29 1   
     4     2     5 ar  
     5     2    30 1   
     6     3     7 ar  
     7     3    31 1   
     8     4     6 ar  
     9     4     8 ar  
    10     4    33 1   
    11     5    10 ar  
    12     5    32 1   
    13     6    11 ar  
    14     6    34 1   
    15     7    10 ar  
    16     7    13 1   
    17     8     9 ar  
    18     8    14 1   
    19     9    12 ar  
    20     9    15 1   
    21    10    17 1   
    22    11    12 ar  
    23    11    27 1   
    24    12    26 1   
    25    13    14 2   
    26    13    19 1   
    27    14    35 1   
    28    15    22 1   
    29    15    24 1   
    30    16    23 1   
    31    16    25 1   
    32    16    47 1   
    33    17    19 1   
    34    17    36 1   
    35    17    37 1   
    36    18    20 1   
    37    18    26 1   
    38    18    41 1   
    39    18    42 1   
    40    19    28 1   
    41    19    38 1   
    42    20    21 1   
    43    20    27 1   
    44    20    46 1   
    45    21    44 1   
    46    21    45 1   
    47    21    47 1   
    48    28    43 1   
    49    39    47 1   
    50    40    47 1   
@<TRIPOS>SUBSTRUCTURE
     1 EE2         1 TEMP              0 ****  ****    0 ROOT
