@<TRIPOS>MOLECULE
EE3
   31    31     1     0     0
SMALL
abcg2


@<TRIPOS>ATOM
      1 C35         57.5390    22.6940    -7.9290 c3         1 EE3       0.016500
      2 C36         57.7060    21.1770    -7.7400 c3         1 EE3      -0.036400
      3 C37         56.6010    20.5150    -6.9200 c3         1 EE3      -0.071400
      4 C38         56.8460    19.0240    -6.7040 c3         1 EE3      -0.098400
      5 C39         55.7220    18.3690    -5.9050 c3         1 EE3       0.099000
      6 C41         56.5930    16.4740    -4.5980 c          1 EE3       0.532600
      7 C43         56.7730    15.0130    -4.5450 cc         1 EE3       0.047500
      8 C44         57.3720    14.2010    -3.6390 cd         1 EE3       0.289900
      9 C46         56.6190    12.9560    -5.1890 cc         1 EE3       0.444900
     10 C48         56.2460    22.9880    -8.7380 c          1 EE3       0.684000
     11 N34         57.6170    23.3880    -6.6350 n8         1 EE3      -1.001200
     12 N40         55.9410    16.9480    -5.6730 ns         1 EE3      -0.487900
     13 N45         57.2640    12.8860    -4.0680 nd         1 EE3      -0.690000
     14 O42         57.0250    17.1750    -3.6800 o          1 EE3      -0.593100
     15 O47         56.2830    14.2100    -5.5510 os         1 EE3      -0.274000
     16 O50         56.2830    22.7070    -9.9650 o          1 EE3      -0.738000
     17 H1          58.3790    23.0380    -8.5380 h1         1 EE3       0.036700
     18 H2          57.7570    20.7080    -8.7260 hc         1 EE3       0.024700
     19 H3          58.6690    21.0030    -7.2490 hc         1 EE3       0.024700
     20 H4          56.5190    21.0070    -5.9460 hc         1 EE3       0.052700
     21 H5          55.6370    20.6550    -7.4200 hc         1 EE3       0.052700
     22 H6          56.9410    18.5180    -7.6700 hc         1 EE3       0.037200
     23 H7          57.7920    18.8760    -6.1740 hc         1 EE3       0.037200
     24 H8          55.6200    18.8530    -4.9340 h1         1 EE3       0.059700
     25 H9          54.7730    18.4730    -6.4330 h1         1 EE3       0.059700
     26 H10         57.8660    14.4700    -2.7220 h4         1 EE3       0.063100
     27 H11         56.3260    12.1570    -5.8500 h5         1 EE3       0.080100
     28 H13         57.8070    24.3710    -6.8080 hn         1 EE3       0.382000
     29 H14         56.6820    23.3810    -6.2340 hn         1 EE3       0.382000
     30 H16         55.6660    16.2990    -6.3950 hn         1 EE3       0.319500
     31 O1          55.2600    23.4550    -8.1150 o          1 EE3      -0.738000
@<TRIPOS>BOND
     1     1     2 1   
     2     1    10 1   
     3     1    11 1   
     4     1    17 1   
     5     2     3 1   
     6     2    18 1   
     7     2    19 1   
     8     3     4 1   
     9     3    20 1   
    10     3    21 1   
    11     4     5 1   
    12     4    22 1   
    13     4    23 1   
    14     5    12 1   
    15     5    24 1   
    16     5    25 1   
    17     6     7 1   
    18     6    12 1   
    19     6    14 2   
    20     7     8 2   
    21     7    15 1   
    22     8    13 1   
    23     8    26 1   
    24     9    13 2   
    25     9    15 1   
    26     9    27 1   
    27    10    16 1   
    28    10    31 1   
    29    11    28 1   
    30    11    29 1   
    31    12    30 1   
@<TRIPOS>SUBSTRUCTURE
     1 EE3         1 TEMP              0 ****  ****    0 ROOT
