@<TRIPOS>MOLECULE
EE3
   31    31     1     0     0
SMALL
No Charge or Current Charge


@<TRIPOS>ATOM
      1 C35         57.5530    22.7170    -7.9440 c3         1 EE3       0.016500
      2 C36         57.7420    21.2050    -7.6360 c3         1 EE3      -0.036400
      3 C37         56.5780    20.5380    -6.8580 c3         1 EE3      -0.071400
      4 C38         56.8160    19.0360    -6.5900 c3         1 EE3      -0.098400
      5 C39         55.6570    18.3720    -5.8190 c3         1 EE3       0.099000
      6 C41         56.7060    16.4160    -4.6160 c          1 EE3       0.532600
      7 C43         56.7830    14.9400    -4.6470 cc         1 EE3       0.047500
      8 C44         57.5140    14.1660    -3.7920 cd         1 EE3       0.289900
      9 C46         56.5030    12.8840    -5.1780 cc         1 EE3       0.444900
     10 C48         56.3330    22.9540    -8.9320 c          1 EE3       0.684000
     11 N34         57.5650    23.5320    -6.6730 n8         1 EE3      -1.001200
     12 N40         55.8890    16.9420    -5.5960 ns         1 EE3      -0.487900
     13 N45         57.3310    12.8380    -4.1380 nd         1 EE3      -0.690000
     14 O42         57.2970    17.1200    -3.8070 o          1 EE3      -0.593100
     15 O47         56.1270    14.1460    -5.5410 os         1 EE3      -0.274000
     16 O50         56.5440    22.8870   -10.1350 o          1 EE3      -0.738000
     17 H1          58.4460    23.0280    -8.5040 h1         1 EE3       0.036700
     18 H2          57.8830    20.6720    -8.5840 hc         1 EE3       0.024700
     19 H3          58.6720    21.0700    -7.0690 hc         1 EE3       0.024700
     20 H4          56.4360    21.0530    -5.9000 hc         1 EE3       0.052700
     21 H5          55.6470    20.6540    -7.4260 hc         1 EE3       0.052700
     22 H6          56.9540    18.5150    -7.5460 hc         1 EE3       0.037200
     23 H7          57.7460    18.9150    -6.0210 hc         1 EE3       0.037200
     24 H8          55.5240    18.8700    -4.8480 h1         1 EE3       0.059700
     25 H9          54.7250    18.4890    -6.3880 h1         1 EE3       0.059700
     26 H10         58.1470    14.4770    -2.9690 h4         1 EE3       0.063100
     27 H11         56.1100    12.0470    -5.7450 h5         1 EE3       0.080100
     28 H13         57.5230    24.5280    -6.9200 hn         1 EE3       0.382000
     29 H14         56.6700    23.3800    -6.1930 hn         1 EE3       0.382000
     30 H16         55.4410    16.2750    -6.2150 hn         1 EE3       0.319500
     31 O1          55.2630    23.3230    -8.4650 o          1 EE3      -0.738000
@<TRIPOS>BOND
     1     1     2 1   
     2     1    10 1   
     3     1    11 1   
     4     1    17 1   
     5     2     3 1   
     6     2    18 1   
     7     2    19 1   
     8     3     4 1   
     9     3    20 1   
    10     3    21 1   
    11     4     5 1   
    12     4    22 1   
    13     4    23 1   
    14     5    12 1   
    15     5    24 1   
    16     5    25 1   
    17     6     7 1   
    18     6    12 1   
    19     6    14 2   
    20     7     8 2   
    21     7    15 1   
    22     8    13 1   
    23     8    26 1   
    24     9    13 2   
    25     9    15 1   
    26     9    27 1   
    27    10    16 1   
    28    10    31 1   
    29    11    28 1   
    30    11    29 1   
    31    12    30 1   
@<TRIPOS>SUBSTRUCTURE
     1 EE3         1 TEMP              0 ****  ****    0 ROOT
