@<TRIPOS>MOLECULE
EE4
   71    75     1     0     0
SMALL
bcc


@<TRIPOS>ATOM
      1 C10          2.5830     1.0070    -2.5390 ca         1 EE4      -0.087000
      2 C13          1.1170     1.1440    -0.1880 ca         1 EE4      -0.104500
      3 C15         -0.3190     2.9870    -1.1930 c          1 EE4       0.677700
      4 C21         -4.1560     4.3400     1.4030 c5         1 EE4       0.134800
      5 C22         -3.3570     3.0900     0.9690 c5         1 EE4       0.058700
      6 C24         -3.7970     0.7130     0.6030 c          1 EE4       0.694700
      7 C26         -4.7920    -0.3270     0.2110 ca         1 EE4      -0.198600
      8 C28         -5.5110    -2.6010     0.3380 ca         1 EE4      -0.248900
      9 C01          6.8690     3.1870     2.2520 c3         1 EE4      -0.090100
     10 C02          6.2030     2.3850     1.1420 c3         1 EE4      -0.082400
     11 C03          6.0090     0.9420     1.5540 c3         1 EE4       0.141400
     12 C05          5.1020    -1.0550     0.6280 ca         1 EE4       0.165100
     13 C06          4.3870    -1.6330    -0.4290 ca         1 EE4      -0.215600
     14 C07          4.0100    -0.8120    -1.6260 c          1 EE4       0.619300
     15 C09          2.9030     0.1620    -1.4760 ca         1 EE4      -0.139600
     16 C11          1.5470     1.9130    -2.4230 ca         1 EE4      -0.104500
     17 C12          0.7950     1.9840    -1.2510 ca         1 EE4      -0.123600
     18 C14          2.1630     0.2420    -0.2990 ca         1 EE4      -0.087000
     19 C18         -2.4150     3.6250    -0.1130 c5         1 EE4       0.063700
     20 C19         -2.1720     5.0490     0.3920 c5         1 EE4       0.128800
     21 C27         -4.5890    -1.6110     0.6780 ca         1 EE4       0.018000
     22 C29         -6.6090    -2.2900    -0.4830 ca         1 EE4      -0.021200
     23 C32         -5.6650    -3.9880     0.6150 cc         1 EE4       0.367800
     24 C33         -6.8150    -1.0000    -0.9830 ca         1 EE4      -0.154000
     25 C34         -5.9010    -0.0400    -0.6230 ca         1 EE4      -0.071000
     26 C35          4.0750    -2.9700    -0.3790 ca         1 EE4       0.176900
     27 C37          4.4260    -3.7870     0.6960 ca         1 EE4       0.061100
     28 C39          4.3870    -5.9230     1.7020 c3         1 EE4       0.124700
     29 C40          5.1260    -3.1960     1.7360 ca         1 EE4      -0.143000
     30 C41          5.4630    -1.8440     1.7090 ca         1 EE4      -0.203000
     31 F36          3.3860    -3.5090    -1.3920 f          1 EE4      -0.117900
     32 N17         -1.2480     2.7870    -0.2490 ns         1 EE4      -0.558900
     33 N20         -3.4840     5.5070     0.8270 n7         1 EE4      -0.777200
     34 N23         -4.2040     1.9930     0.5620 ns         1 EE4      -0.563900
     35 N30         -7.2980    -3.4410    -0.6290 na         1 EE4      -0.009100
     36 N31         -6.7340    -4.4590     0.0280 nd         1 EE4      -0.511100
     37 O08          4.5930    -0.9630    -2.6750 o          1 EE4      -0.494100
     38 O16         -0.3580     3.9250    -1.9780 o          1 EE4      -0.611100
     39 O25         -2.6660     0.3990     0.9650 o          1 EE4      -0.630100
     40 O38          4.0490    -5.0760     0.6210 os         1 EE4      -0.298900
     41 H1           3.1500     0.9600    -3.4590 ha         1 EE4       0.147500
     42 H2           0.5820     1.1890     0.7510 ha         1 EE4       0.148000
     43 H3          -5.1930     4.2950     1.0670 h1         1 EE4       0.055700
     44 H4          -4.1760     4.4000     2.4930 h1         1 EE4       0.055700
     45 H5          -2.7500     2.7460     1.8110 h1         1 EE4       0.083700
     46 H6           6.2460     3.2240     3.1470 hc         1 EE4       0.036367
     47 H7           7.8300     2.7550     2.5340 hc         1 EE4       0.036367
     48 H8           7.0500     4.2130     1.9340 hc         1 EE4       0.036367
     49 H9           5.2350     2.8260     0.8920 hc         1 EE4       0.059200
     50 H10          6.8160     2.4230     0.2380 hc         1 EE4       0.059200
     51 H11          6.9760     0.4820     1.7870 h1         1 EE4       0.034200
     52 H12          5.3860     0.8800     2.4550 h1         1 EE4       0.034200
     53 H13          1.3130     2.5680    -3.2510 ha         1 EE4       0.148000
     54 H14          2.3890    -0.4020     0.5390 ha         1 EE4       0.147500
     55 H15         -2.9540     3.6800    -1.0670 h1         1 EE4       0.059700
     56 H16         -1.4770     5.0240     1.2380 h1         1 EE4       0.075700
     57 H17         -1.7560     5.7110    -0.3650 h1         1 EE4       0.075700
     58 H18         -3.7370    -1.8420     1.3050 ha         1 EE4       0.161000
     59 H19         -5.0360    -4.6270     1.2140 h4         1 EE4       0.055800
     60 H20         -7.6490    -0.7640    -1.6290 ha         1 EE4       0.143000
     61 H21         -6.0360     0.9560    -1.0270 ha         1 EE4       0.127000
     62 H22          3.9990    -6.9080     1.4540 h1         1 EE4       0.042367
     63 H23          5.4680    -5.9950     1.8410 h1         1 EE4       0.042367
     64 H24          3.9310    -5.5900     2.6380 h1         1 EE4       0.042367
     65 H25          5.4290    -3.7780     2.5960 ha         1 EE4       0.139000
     66 H26          6.0110    -1.4370     2.5470 ha         1 EE4       0.142000
     67 H27         -1.2590     1.9190     0.2690 hn         1 EE4       0.347500
     68 H28         -4.0020     5.8120     0.0140 hn         1 EE4       0.350800
     69 H30         -5.1460     2.2110     0.2810 hn         1 EE4       0.318500
     70 H31         -8.1460    -3.5930    -1.1510 hn         1 EE4       0.328700
     71 O04          5.3810     0.2510     0.4830 os         1 EE4      -0.317900
@<TRIPOS>BOND
     1     1    15 ar  
     2     1    16 ar  
     3     1    41 1   
     4     2    17 ar  
     5     2    18 ar  
     6     2    42 1   
     7     3    17 1   
     8     3    32 1   
     9     3    38 2   
    10     4     5 1   
    11     4    33 1   
    12     4    43 1   
    13     4    44 1   
    14     5    19 1   
    15     5    34 1   
    16     5    45 1   
    17     6     7 1   
    18     6    34 1   
    19     6    39 2   
    20     7    21 ar  
    21     7    25 ar  
    22     8    21 ar  
    23     8    22 ar  
    24     8    23 1   
    25     9    10 1   
    26     9    46 1   
    27     9    47 1   
    28     9    48 1   
    29    10    11 1   
    30    10    49 1   
    31    10    50 1   
    32    11    51 1   
    33    11    52 1   
    34    11    71 1   
    35    12    13 ar  
    36    12    30 ar  
    37    12    71 1   
    38    13    14 1   
    39    13    26 ar  
    40    14    15 1   
    41    14    37 2   
    42    15    18 ar  
    43    16    17 ar  
    44    16    53 1   
    45    18    54 1   
    46    19    20 1   
    47    19    32 1   
    48    19    55 1   
    49    20    33 1   
    50    20    56 1   
    51    20    57 1   
    52    21    58 1   
    53    22    24 ar  
    54    22    35 1   
    55    23    36 2   
    56    23    59 1   
    57    24    25 ar  
    58    24    60 1   
    59    25    61 1   
    60    26    27 ar  
    61    26    31 1   
    62    27    29 ar  
    63    27    40 1   
    64    28    40 1   
    65    28    62 1   
    66    28    63 1   
    67    28    64 1   
    68    29    30 ar  
    69    29    65 1   
    70    30    66 1   
    71    32    67 1   
    72    33    68 1   
    73    34    69 1   
    74    35    36 1   
    75    35    70 1   
@<TRIPOS>SUBSTRUCTURE
     1 EE4         1 TEMP              0 ****  ****    0 ROOT
