@<TRIPOS>MOLECULE
EE4
   71    75     1     0     0
SMALL
No Charge or Current Charge


@<TRIPOS>ATOM
      1 C10          2.7590     0.8720    -2.6920 ca         1 EE4      -0.069000
      2 C13          0.9650     0.8250    -0.5360 ca         1 EE4      -0.086500
      3 C15         -0.2620     2.8860    -1.4630 c          1 EE4       0.610700
      4 C21         -3.8040     4.7000     1.1990 c5         1 EE4       0.134800
      5 C22         -2.9790     3.3950     1.0230 c5         1 EE4       0.058700
      6 C24         -3.5000     0.9980     0.8620 c          1 EE4       0.627700
      7 C26         -4.5090    -0.0780     0.5340 ca         1 EE4      -0.198600
      8 C28         -5.0590    -2.4240     0.3400 ca         1 EE4      -0.248900
      9 C01          5.1840     3.3460     2.5430 c3         1 EE4      -0.090100
     10 C02          4.9530     2.3820     1.3620 c3         1 EE4      -0.082400
     11 C03          5.0990     0.9000     1.7550 c3         1 EE4       0.164600
     12 C05          4.7990    -1.2570     0.5910 ca         1 EE4       0.165100
     13 C06          4.3980    -1.9220    -0.5820 ca         1 EE4      -0.215600
     14 C07          4.0160    -1.1420    -1.8030 c          1 EE4       0.619300
     15 C09          2.9030    -0.1190    -1.7000 ca         1 EE4      -0.139600
     16 C11          1.7380     1.8330    -2.6040 ca         1 EE4      -0.086500
     17 C12          0.8260     1.8290    -1.5250 ca         1 EE4      -0.123600
     18 C14          1.9860    -0.1360    -0.6260 ca         1 EE4      -0.069000
     19 C18         -2.2630     3.7410    -0.3060 c5         1 EE4       0.063700
     20 C19         -1.7290     5.1510     0.0860 c5         1 EE4       0.128800
     21 C27         -4.1150    -1.4370     0.6480 ca         1 EE4       0.036000
     22 C29         -6.3190    -2.1230    -0.0580 ca         1 EE4      -0.021200
     23 C32         -4.9830    -3.8630     0.3520 cc         1 EE4       0.367800
     24 C33         -6.7590    -0.8040    -0.1870 ca         1 EE4      -0.136000
     25 C34         -5.8410     0.2270     0.1130 ca         1 EE4      -0.053000
     26 C35          4.3730    -3.3290    -0.6120 ca         1 EE4       0.212000
     27 C37          4.7300    -4.0840     0.5260 ca         1 EE4       0.061100
     28 C39          5.0250    -6.3130     1.5630 c3         1 EE4       0.147900
     29 C40          5.1230    -3.4100     1.7040 ca         1 EE4      -0.125000
     30 C41          5.1570    -2.0050     1.7320 ca         1 EE4      -0.185000
     31 F36          3.9750    -3.9700    -1.7360 f          1 EE4      -0.153000
     32 N17         -1.1230     2.8130    -0.3850 ns         1 EE4      -0.491900
     33 N20         -2.8590     5.7990     0.8300 n7         1 EE4      -0.832400
     34 N23         -3.9320     2.3070     0.7320 ns         1 EE4      -0.496900
     35 N30         -6.9720    -3.3170    -0.2750 na         1 EE4      -0.059400
     36 N31         -6.1460    -4.4240    -0.0220 nd         1 EE4      -0.511100
     37 O08          4.6050    -1.3290    -2.8620 o          1 EE4      -0.494100
     38 O16         -0.3700     3.7530    -2.3220 o          1 EE4      -0.611100
     39 O25         -2.3610     0.7240     1.2190 o          1 EE4      -0.630100
     40 O38          4.6800    -5.4660     0.4510 os         1 EE4      -0.322100
     41 H1           3.4470     0.9090    -3.5350 ha         1 EE4       0.129500
     42 H2           0.2910     0.7710     0.3140 ha         1 EE4       0.130000
     43 H3          -4.6690     4.7120     0.5190 h1         1 EE4       0.055700
     44 H4          -4.1860     4.8140     2.2230 h1         1 EE4       0.055700
     45 H5          -2.3000     3.2140     1.8690 h1         1 EE4       0.083700
     46 H6           4.4590     3.1570     3.3440 hc         1 EE4       0.036367
     47 H7           6.1940     3.2230     2.9520 hc         1 EE4       0.036367
     48 H8           5.0700     4.3860     2.2150 hc         1 EE4       0.036367
     49 H9           3.9490     2.5480     0.9530 hc         1 EE4       0.059200
     50 H10          5.6690     2.6150     0.5630 hc         1 EE4       0.059200
     51 H11          6.1130     0.7140     2.1320 h1         1 EE4       0.034200
     52 H12          4.3760     0.6590     2.5450 h1         1 EE4       0.034200
     53 H13          1.6600     2.5880    -3.3840 ha         1 EE4       0.130000
     54 H14          2.0550    -0.8960     0.1500 ha         1 EE4       0.129500
     55 H15         -2.9240     3.7460    -1.1840 h1         1 EE4       0.059700
     56 H16         -0.8530     5.0620     0.7460 h1         1 EE4       0.075700
     57 H17         -1.4190     5.7390    -0.7900 h1         1 EE4       0.075700
     58 H18         -3.1100    -1.7140     0.9650 ha         1 EE4       0.143000
     59 H19         -4.1660    -4.5270     0.6060 h4         1 EE4       0.055800
     60 H20         -7.7730    -0.5760    -0.5070 ha         1 EE4       0.125000
     61 H21         -6.1800     1.2540     0.0140 ha         1 EE4       0.109000
     62 H22          4.9150    -7.3680     1.2840 h1         1 EE4       0.042367
     63 H23          6.0660    -6.1490     1.8700 h1         1 EE4       0.042367
     64 H24          4.3690    -6.1180     2.4200 h1         1 EE4       0.042367
     65 H25          5.4060    -3.9560     2.6000 ha         1 EE4       0.121000
     66 H26          5.4720    -1.5140     2.6490 ha         1 EE4       0.124000
     67 H27         -1.0260     2.0190     0.2390 hn         1 EE4       0.347500
     68 H28         -3.3510     6.4600     0.2140 hn         1 EE4       0.406000
     69 H30         -4.8860     2.4530     0.4320 hn         1 EE4       0.318500
     70 H31         -7.9370    -3.4280    -0.5830 hn         1 EE4       0.379000
     71 O04          4.8400     0.1210     0.5770 os         1 EE4      -0.341100
@<TRIPOS>BOND
     1     1    15 ar  
     2     1    16 ar  
     3     1    41 1   
     4     2    17 ar  
     5     2    18 ar  
     6     2    42 1   
     7     3    17 1   
     8     3    32 1   
     9     3    38 2   
    10     4     5 1   
    11     4    33 1   
    12     4    43 1   
    13     4    44 1   
    14     5    19 1   
    15     5    34 1   
    16     5    45 1   
    17     6     7 1   
    18     6    34 1   
    19     6    39 2   
    20     7    21 ar  
    21     7    25 ar  
    22     8    21 ar  
    23     8    22 ar  
    24     8    23 1   
    25     9    10 1   
    26     9    46 1   
    27     9    47 1   
    28     9    48 1   
    29    10    11 1   
    30    10    49 1   
    31    10    50 1   
    32    11    51 1   
    33    11    52 1   
    34    11    71 1   
    35    12    13 ar  
    36    12    30 ar  
    37    12    71 1   
    38    13    14 1   
    39    13    26 ar  
    40    14    15 1   
    41    14    37 2   
    42    15    18 ar  
    43    16    17 ar  
    44    16    53 1   
    45    18    54 1   
    46    19    20 1   
    47    19    32 1   
    48    19    55 1   
    49    20    33 1   
    50    20    56 1   
    51    20    57 1   
    52    21    58 1   
    53    22    24 ar  
    54    22    35 1   
    55    23    36 2   
    56    23    59 1   
    57    24    25 ar  
    58    24    60 1   
    59    25    61 1   
    60    26    27 ar  
    61    26    31 1   
    62    27    29 ar  
    63    27    40 1   
    64    28    40 1   
    65    28    62 1   
    66    28    63 1   
    67    28    64 1   
    68    29    30 ar  
    69    29    65 1   
    70    30    66 1   
    71    32    67 1   
    72    33    68 1   
    73    34    69 1   
    74    35    36 1   
    75    35    70 1   
@<TRIPOS>SUBSTRUCTURE
     1 EE4         1 TEMP              0 ****  ****    0 ROOT
