@<TRIPOS>MOLECULE
EE5
   41    43     1     0     0
SMALL
No Charge or Current Charge


@<TRIPOS>ATOM
      1 CAB         -8.2070     3.3160    -0.9930 c3         1 EE5      -0.004000
      2 CAC         -7.1730     2.3460    -0.6180 c1         1 EE5      -0.125100
      3 CAD         -6.2890     1.5670    -0.3210 cg         1 EE5      -0.121000
      4 CAE         -5.2350     0.6520     0.0280 ca         1 EE5       0.053000
      5 CAQ         -3.8780     0.9170    -0.2950 ca         1 EE5      -0.035300
      6 CAY         -3.5320     2.2220    -1.0390 c3         1 EE5      -0.048800
      7 CAR         -2.8660    -0.0200     0.0720 ca         1 EE5       0.195400
      8 NAS         -1.5230     0.2640    -0.2590 nc         1 EE5      -0.614100
      9 CAF         -5.5850    -0.5250     0.7050 ca         1 EE5      -0.118000
     10 CAG         -4.6010    -1.4470     1.0680 ca         1 EE5      -0.052000
     11 CAH         -3.2510    -1.1990     0.7540 ca         1 EE5      -0.201600
     12 CAI         -2.2080    -2.1840     1.1410 c          1 EE5       0.577600
     13 OAA         -2.4330    -3.2290     1.7310 o          1 EE5      -0.548000
     14 NAJ         -0.9600    -1.8260     0.7820 ns         1 EE5      -0.429400
     15 CAK         -0.6560    -0.6710     0.1280 cd         1 EE5       0.522900
     16 CAL          0.8060    -0.4730    -0.1750 c3         1 EE5      -0.021700
     17 SAM          1.8800    -0.3490     1.3290 ss         1 EE5      -0.127000
     18 CAN          3.5600    -0.1720     0.7190 ca         1 EE5      -0.139000
     19 CAO          4.6040    -0.1290     1.6580 ca         1 EE5      -0.137500
     20 CAP          5.9390     0.0090     1.2420 ca         1 EE5      -0.077000
     21 CAV          6.2600     0.1080    -0.1320 ca         1 EE5      -0.125600
     22 CAW          7.7040     0.2570    -0.5860 c          1 EE5       0.712600
     23 OAZ          8.5850     0.2920     0.2620 o          1 EE5      -0.717500
     24 OAX          7.9360     0.3380    -1.7850 o          1 EE5      -0.717500
     25 CAU          5.2040     0.0650    -1.0720 ca         1 EE5      -0.077000
     26 CAT          3.8690    -0.0730    -0.6530 ca         1 EE5      -0.137500
     27 H1          -9.0300     3.2940    -0.2690 hc         1 EE5       0.050700
     28 H2          -7.7890     4.3290    -1.0170 hc         1 EE5       0.050700
     29 H3          -8.6090     3.0800    -1.9850 hc         1 EE5       0.050700
     30 H4          -3.8450     3.0960    -0.4560 hc         1 EE5       0.056033
     31 H5          -2.4660     2.3520    -1.2490 hc         1 EE5       0.056033
     32 H6          -4.0490     2.2670    -2.0050 hc         1 EE5       0.056033
     33 H7          -6.6260    -0.7270     0.9520 ha         1 EE5       0.119000
     34 H8          -4.8900    -2.3560     1.5930 ha         1 EE5       0.133000
     35 H9          -0.2270    -2.4710     1.0360 hn         1 EE5       0.332500
     36 H10          1.1510    -1.3130    -0.7890 h1         1 EE5       0.084200
     37 H11          0.9250     0.4460    -0.7610 h1         1 EE5       0.084200
     38 H12          4.3800    -0.2030     2.7200 ha         1 EE5       0.089000
     39 H13          6.7250     0.0390     1.9930 ha         1 EE5       0.129500
     40 H15          5.4160     0.1390    -2.1370 ha         1 EE5       0.129500
     41 H16          3.0920    -0.0990    -1.4100 ha         1 EE5       0.089000
@<TRIPOS>BOND
     1     1     2 1   
     2     1    27 1   
     3     1    28 1   
     4     1    29 1   
     5     2     3 3   
     6     3     4 1   
     7     4     5 ar  
     8     4     9 ar  
     9     5     6 1   
    10     5     7 ar  
    11     6    30 1   
    12     6    31 1   
    13     6    32 1   
    14     7     8 1   
    15     7    11 ar  
    16     8    15 2   
    17     9    10 ar  
    18     9    33 1   
    19    10    11 ar  
    20    10    34 1   
    21    11    12 1   
    22    12    13 2   
    23    12    14 1   
    24    14    15 1   
    25    14    35 1   
    26    15    16 1   
    27    16    17 1   
    28    16    36 1   
    29    16    37 1   
    30    17    18 1   
    31    18    19 ar  
    32    18    26 ar  
    33    19    20 ar  
    34    19    38 1   
    35    20    21 ar  
    36    20    39 1   
    37    21    22 1   
    38    21    25 ar  
    39    22    23 1   
    40    22    24 1   
    41    25    26 ar  
    42    25    40 1   
    43    26    41 1   
@<TRIPOS>SUBSTRUCTURE
     1 EE5         1 TEMP              0 ****  ****    0 ROOT
