@<TRIPOS>MOLECULE
EE5
   41    43     1     0     0
SMALL
bcc


@<TRIPOS>ATOM
      1 CAB         -7.4080     3.8940     0.0120 c3         1 EE5      -0.004000
      2 CAC         -6.5360     2.7330    -0.0030 c1         1 EE5      -0.125100
      3 CAD         -5.8100     1.7700    -0.0130 cg         1 EE5      -0.121000
      4 CAE         -4.9650     0.6230    -0.0220 ca         1 EE5       0.053000
      5 CAQ         -3.5780     0.7790    -0.0000 ca         1 EE5      -0.035300
      6 CAY         -2.9730     2.1480     0.0320 c3         1 EE5      -0.048800
      7 CAR         -2.7790    -0.3800    -0.0070 ca         1 EE5       0.195400
      8 NAS         -1.4090    -0.2350     0.0150 nc         1 EE5      -0.614100
      9 CAF         -5.5530    -0.6550    -0.0530 ca         1 EE5      -0.136000
     10 CAG         -4.7680    -1.7800    -0.0600 ca         1 EE5      -0.070000
     11 CAH         -3.3780    -1.6490    -0.0370 ca         1 EE5      -0.201600
     12 CAI         -2.5340    -2.8390    -0.0420 c          1 EE5       0.720100
     13 OAA         -2.9350    -3.9880    -0.0640 o          1 EE5      -0.623500
     14 NAJ         -1.1870    -2.5520    -0.0180 ns         1 EE5      -0.496400
     15 CAK         -0.6830    -1.2870     0.0080 cd         1 EE5       0.522900
     16 CAL          0.8090    -1.1900     0.0270 c3         1 EE5      -0.069600
     17 SAM          1.2960     0.5480     0.0570 ss         1 EE5      -0.206000
     18 CAN          3.0560     0.4300     0.0370 ca         1 EE5      -0.012100
     19 CAO          3.7470     1.6440     0.0250 ca         1 EE5      -0.155500
     20 CAP          5.1300     1.6610     0.0050 ca         1 EE5      -0.095000
     21 CAV          5.8690     0.4790    -0.0060 ca         1 EE5      -0.125600
     22 CAW          7.3900     0.5040    -0.0360 c          1 EE5       0.923200
     23 OAZ          7.9290     1.6280    -0.0460 o          1 EE5      -0.822800
     24 OAX          7.9660    -0.6010    -0.0480 o          1 EE5      -0.822800
     25 CAU          5.1700    -0.7220     0.0090 ca         1 EE5      -0.095000
     26 CAT          3.7820    -0.7580     0.0300 ca         1 EE5      -0.155500
     27 H1          -8.2890     3.7120     0.6270 hc         1 EE5       0.050700
     28 H2          -6.8900     4.7660     0.4100 hc         1 EE5       0.050700
     29 H3          -7.7490     4.1380    -0.9950 hc         1 EE5       0.050700
     30 H4          -3.3020     2.6970     0.9160 hc         1 EE5       0.056033
     31 H5          -1.8880     2.1060     0.0400 hc         1 EE5       0.056033
     32 H6          -3.2880     2.7310    -0.8350 hc         1 EE5       0.056033
     33 H7          -6.6310    -0.7410    -0.0700 ha         1 EE5       0.137000
     34 H8          -5.2180    -2.7630    -0.0830 ha         1 EE5       0.151000
     35 H9          -0.5490    -3.3380    -0.0200 hn         1 EE5       0.332500
     36 H10          1.1950    -1.7140     0.9060 h1         1 EE5       0.084200
     37 H11          1.2140    -1.6870    -0.8580 h1         1 EE5       0.084200
     38 H12          3.2000     2.5800     0.0310 ha         1 EE5       0.107000
     39 H13          5.6470     2.6120    -0.0050 ha         1 EE5       0.147500
     40 H15          5.7190    -1.6550     0.0020 ha         1 EE5       0.147500
     41 H16          3.2880    -1.7200     0.0420 ha         1 EE5       0.107000
@<TRIPOS>BOND
     1     1     2 1   
     2     1    27 1   
     3     1    28 1   
     4     1    29 1   
     5     2     3 3   
     6     3     4 1   
     7     4     5 ar  
     8     4     9 ar  
     9     5     6 1   
    10     5     7 ar  
    11     6    30 1   
    12     6    31 1   
    13     6    32 1   
    14     7     8 1   
    15     7    11 ar  
    16     8    15 2   
    17     9    10 ar  
    18     9    33 1   
    19    10    11 ar  
    20    10    34 1   
    21    11    12 1   
    22    12    13 2   
    23    12    14 1   
    24    14    15 1   
    25    14    35 1   
    26    15    16 1   
    27    16    17 1   
    28    16    36 1   
    29    16    37 1   
    30    17    18 1   
    31    18    19 ar  
    32    18    26 ar  
    33    19    20 ar  
    34    19    38 1   
    35    20    21 ar  
    36    20    39 1   
    37    21    22 1   
    38    21    25 ar  
    39    22    23 1   
    40    22    24 1   
    41    25    26 ar  
    42    25    40 1   
    43    26    41 1   
@<TRIPOS>SUBSTRUCTURE
     1 EE5         1 TEMP              0 ****  ****    0 ROOT
