@<TRIPOS>MOLECULE
EE7
   82    87     1     0     0
SMALL
No Charge or Current Charge


@<TRIPOS>ATOM
      1 C4           8.2090     0.2430    -1.8210 ca         1 EE7       0.171300
      2 C5           6.9510     0.3930    -1.2730 ca         1 EE7      -0.253800
      3 C6           5.9210    -0.4300    -1.7540 ca         1 EE7       0.433900
      4 N1           6.1630    -1.3350    -2.7250 nb         1 EE7      -0.284000
      5 N3           8.4820    -0.6500    -2.7890 nb         1 EE7      -0.189000
      6 C2           7.4320    -1.3990    -3.1940 ca         1 EE7       0.177900
      7 CAG          6.8970     1.4150    -0.2450 cc         1 EE7      -0.115200
      8 CAH          8.1380     1.9990    -0.0500 cd         1 EE7      -0.112600
      9 CAJ          8.4700     3.0990     0.9300 c3         1 EE7      -0.076200
     10 CAK          8.9670     2.5830     2.2980 c3         1 EE7       0.300000
     11 CAP          3.5520    -1.3260    -1.4560 c6         1 EE7       0.235500
     12 CAQ          2.1920    -0.6910    -1.0970 c6         1 EE7      -0.093400
     13 CAR          1.0570    -1.7300    -1.2280 c6         1 EE7       0.170300
     14 CAT          2.6180    -3.5690    -0.7220 c6         1 EE7       0.170300
     15 CAU          3.7910    -2.5750    -0.5790 c6         1 EE7      -0.093400
     16 CAW         -1.1190    -3.3280     0.1310 ca         1 EE7      -0.125300
     17 CAX         -2.1670    -3.0790    -0.7930 ca         1 EE7      -0.071000
     18 CAY         -3.4000    -2.5440    -0.3680 ca         1 EE7      -0.141000
     19 CAZ         -3.5610    -2.2660     0.9960 ca         1 EE7      -0.018200
     20 CBA         -2.5500    -2.5030     1.8920 ca         1 EE7      -0.118800
     21 CBB         -1.3050    -3.0390     1.5110 ca         1 EE7       0.018700
     22 CBC         -0.2040    -3.2840     2.5410 c3         1 EE7      -0.053800
     23 CBE         -4.3680    -1.6070     3.0440 cc         1 EE7       0.010200
     24 CBF         -3.0720    -2.0830     3.1750 cd         1 EE7      -0.160200
     25 CBG         -5.2240    -1.0880     4.0590 cg         1 EE7       0.305700
     26 CBJ         -5.8350     0.0530     0.3540 c3         1 EE7       0.148800
     27 CBL         -8.2730     0.5700     0.3680 c6         1 EE7       0.146800
     28 CBM         -9.5210     0.8890    -0.5000 c6         1 EE7       0.098500
     29 CBO         -7.9920     2.0730    -2.1160 c6         1 EE7       0.098500
     30 CBP         -6.8080     1.7180    -1.1780 c6         1 EE7       0.146800
     31 CBQ        -10.4600     2.5600    -2.1600 c          1 EE7       0.576100
     32 CBR        -11.8560     2.4350    -1.4970 c3         1 EE7       0.109600
     33 FAL          8.0360     1.8010     2.8910 f          1 EE7      -0.113667
     34 FAM         10.1010     1.8580     2.1660 f          1 EE7      -0.113667
     35 FAN          9.2300     3.6170     3.1300 f          1 EE7      -0.113667
     36 FBT        -12.8310     3.1220    -2.1540 f          1 EE7      -0.236000
     37 NAO          4.6280    -0.3390    -1.2500 nu         1 EE7      -0.911100
     38 NAS          1.3180    -2.9300    -0.3840 n3         1 EE7      -0.725600
     39 NBD         -4.6580    -1.7350     1.6710 na         1 EE7      -0.073700
     40 NBH         -5.9450    -0.6560     4.8700 n1         1 EE7      -0.449000
     41 NBK         -7.0290     0.4470    -0.4410 n3         1 EE7      -0.726600
     42 NBN         -9.3460     2.0060    -1.4830 n          1 EE7      -0.417800
     43 OBS        -10.3020     3.1670    -3.2160 o          1 EE7      -0.570100
     44 SAI          9.4130     1.3410    -1.1220 ss         1 EE7      -0.073900
     45 H1           7.6270    -2.1300    -3.9770 h5         1 EE7       0.048100
     46 H2           6.0130     1.7020     0.3200 ha         1 EE7       0.199000
     47 H3           9.2380     3.7570     0.5060 hc         1 EE7       0.087700
     48 H4           7.5880     3.7300     1.0950 hc         1 EE7       0.087700
     49 H5           3.5090    -1.6350    -2.5140 h1         1 EE7       0.083700
     50 H6           2.2110    -0.3040    -0.0690 hc         1 EE7       0.055200
     51 H7           1.9880     0.1630    -1.7560 hc         1 EE7       0.055200
     52 H8           0.1140    -1.2460    -0.9340 h1         1 EE7       0.036700
     53 H9           0.9540    -2.0220    -2.2840 h1         1 EE7       0.036700
     54 H10          2.5950    -3.9540    -1.7530 h1         1 EE7       0.036700
     55 H11          2.8030    -4.4280    -0.0610 h1         1 EE7       0.036700
     56 H12          4.7280    -3.0710    -0.8660 hc         1 EE7       0.055200
     57 H13          3.8960    -2.2840     0.4750 hc         1 EE7       0.055200
     58 H14          0.4600    -4.7760     0.2190 h1         1 EE7       0.037200
     59 H15          0.0460    -4.2780    -1.4140 h1         1 EE7       0.037200
     60 H16         -2.0220    -3.2960    -1.8490 ha         1 EE7       0.110000
     61 H17         -4.1930    -2.3530    -1.0860 ha         1 EE7       0.121000
     62 H18          0.1810    -4.3080     2.4730 hc         1 EE7       0.051033
     63 H19          0.6360    -2.5980     2.3840 hc         1 EE7       0.051033
     64 H20         -0.5540    -3.1440     3.5680 hc         1 EE7       0.051033
     65 H21         -2.5350    -2.1180     4.1200 ha         1 EE7       0.216000
     66 H22         -6.7300    -1.4080     1.6940 h1         1 EE7       0.069700
     67 H23         -6.1110    -2.0940     0.1890 h1         1 EE7       0.069700
     68 H24         -5.6620     0.7800     1.1590 h1         1 EE7       0.048200
     69 H25         -4.9470     0.0800    -0.2930 h1         1 EE7       0.048200
     70 H26         -8.1550     1.3670     1.1180 h1         1 EE7       0.045200
     71 H27         -8.4780    -0.3580     0.9200 h1         1 EE7       0.045200
     72 H28         -9.7940    -0.0180    -1.0570 h1         1 EE7       0.061450
     73 H29        -10.3510     1.1110     0.1840 h1         1 EE7       0.061450
     74 H30         -7.8220     3.0820    -2.5180 h1         1 EE7       0.061450
     75 H31         -7.9770     1.3800    -2.9690 h1         1 EE7       0.061450
     76 H32         -5.8930     1.6560    -1.7850 h1         1 EE7       0.045200
     77 H33         -6.6640     2.5460    -0.4680 h1         1 EE7       0.045200
     78 H34        -12.1350     1.3750    -1.4640 h1         1 EE7       0.057200
     79 H35        -11.7900     2.8170    -0.4720 h1         1 EE7       0.057200
     80 H36          4.5010     0.3570    -0.5190 hn         1 EE7       0.493000
     81 CAV          0.1990    -3.9020    -0.3930 c3         1 EE7       0.221100
     82 CBI         -5.9040    -1.3600     0.9760 c3         1 EE7       0.074600
@<TRIPOS>BOND
     1     1     2 ar  
     2     1     5 ar  
     3     1    44 1   
     4     2     3 ar  
     5     2     7 1   
     6     3     4 ar  
     7     3    37 1   
     8     4     6 ar  
     9     5     6 ar  
    10     6    45 1   
    11     7     8 2   
    12     7    46 1   
    13     8     9 1   
    14     8    44 1   
    15     9    10 1   
    16     9    47 1   
    17     9    48 1   
    18    10    33 1   
    19    10    34 1   
    20    10    35 1   
    21    11    12 1   
    22    11    15 1   
    23    11    37 1   
    24    11    49 1   
    25    12    13 1   
    26    12    50 1   
    27    12    51 1   
    28    13    38 1   
    29    13    52 1   
    30    13    53 1   
    31    14    15 1   
    32    14    38 1   
    33    14    54 1   
    34    14    55 1   
    35    15    56 1   
    36    15    57 1   
    37    16    17 ar  
    38    16    21 ar  
    39    16    81 1   
    40    17    18 ar  
    41    17    60 1   
    42    18    19 ar  
    43    18    61 1   
    44    19    20 ar  
    45    19    39 1   
    46    20    21 ar  
    47    20    24 1   
    48    21    22 1   
    49    22    62 1   
    50    22    63 1   
    51    22    64 1   
    52    23    24 2   
    53    23    25 1   
    54    23    39 1   
    55    24    65 1   
    56    25    40 3   
    57    26    41 1   
    58    26    68 1   
    59    26    69 1   
    60    26    82 1   
    61    27    28 1   
    62    27    41 1   
    63    27    70 1   
    64    27    71 1   
    65    28    42 1   
    66    28    72 1   
    67    28    73 1   
    68    29    30 1   
    69    29    42 1   
    70    29    74 1   
    71    29    75 1   
    72    30    41 1   
    73    30    76 1   
    74    30    77 1   
    75    31    32 1   
    76    31    42 1   
    77    31    43 2   
    78    32    36 1   
    79    32    78 1   
    80    32    79 1   
    81    37    80 1   
    82    38    81 1   
    83    39    82 1   
    84    58    81 1   
    85    59    81 1   
    86    66    82 1   
    87    67    82 1   
@<TRIPOS>SUBSTRUCTURE
     1 EE7         1 TEMP              0 ****  ****    0 ROOT
