@<TRIPOS>MOLECULE
EE7
   82    87     1     0     0
SMALL
bcc


@<TRIPOS>ATOM
      1 C4           8.2620     0.1010    -1.3940 ca         1 EE7       0.499600
      2 C5           6.9570     0.3440    -0.9800 ca         1 EE7      -0.384400
      3 C6           6.0040    -0.6370    -1.3620 ca         1 EE7       0.762200
      4 N1           6.4010    -1.6840    -2.0870 nb         1 EE7      -0.810000
      5 N3           8.6620    -0.9450    -2.1180 nb         1 EE7      -0.715000
      6 C2           7.6830    -1.7740    -2.4230 ca         1 EE7       0.703900
      7 CAG          6.8370     1.5460    -0.2200 cc         1 EE7      -0.065200
      8 CAH          8.0210     2.1880    -0.0720 cd         1 EE7      -0.112600
      9 CAJ          8.2610     3.4610     0.6660 c3         1 EE7      -0.076200
     10 CAK          8.8290     3.2210     2.0450 c3         1 EE7       0.663900
     11 CAP          3.7140    -1.5510    -1.2530 c6         1 EE7       0.235500
     12 CAQ          2.3270    -0.9250    -1.2540 c6         1 EE7      -0.093400
     13 CAR          1.2550    -1.9930    -1.4030 c6         1 EE7       0.170300
     14 CAT          2.6540    -3.6550    -0.3990 c6         1 EE7       0.170300
     15 CAU          3.7790    -2.6530    -0.2000 c6         1 EE7      -0.093400
     16 CAW         -1.0580    -3.3740    -0.0540 ca         1 EE7      -0.125300
     17 CAX         -2.0350    -3.1950    -1.0550 ca         1 EE7      -0.089000
     18 CAY         -3.2830    -2.6710    -0.8020 ca         1 EE7      -0.159000
     19 CAZ         -3.5550    -2.3150     0.5190 ca         1 EE7      -0.018200
     20 CBA         -2.5930    -2.4750     1.5420 ca         1 EE7      -0.118800
     21 CBB         -1.3240    -3.0140     1.2600 ca         1 EE7       0.018700
     22 CBC         -0.3140    -3.2070     2.3510 c3         1 EE7      -0.053800
     23 CBE         -4.4640    -1.6190     2.4130 cc         1 EE7       0.010200
     24 CBF         -3.1970    -2.0200     2.7460 cd         1 EE7      -0.110200
     25 CBG         -5.4590    -1.0890     3.2630 cg         1 EE7       0.216500
     26 CBJ         -5.9310     0.0270    -0.0300 c3         1 EE7       0.148800
     27 CBL         -8.2560     0.5570     0.3240 c6         1 EE7       0.146800
     28 CBM         -9.5840     0.7830    -0.3780 c6         1 EE7       0.098500
     29 CBO         -8.3940     1.7940    -2.2320 c6         1 EE7       0.098500
     30 CBP         -7.0860     1.5470    -1.5000 c6         1 EE7       0.146800
     31 CBQ        -10.3110     2.9740    -1.2880 c          1 EE7       0.643100
     32 CBR        -11.4200     2.9700    -0.2410 c3         1 EE7       0.090900
     33 FAL          8.0060     2.4880     2.8050 f          1 EE7      -0.234967
     34 FAM          9.9990     2.5680     2.0010 f          1 EE7      -0.234967
     35 FAN          9.0460     4.3710     2.6950 f          1 EE7      -0.234967
     36 FBT        -12.1870     4.1000    -0.4130 f          1 EE7      -0.217300
     37 NAO          4.7150    -0.5240    -1.0280 nu         1 EE7      -0.855900
     38 NAS          1.3600    -3.0010    -0.3670 n3         1 EE7      -0.725600
     39 NBD         -4.6920    -1.8020     1.0680 na         1 EE7      -0.044400
     40 NBH         -6.2710    -0.6530     3.9560 n1         1 EE7      -0.359800
     41 NBK         -7.1920     0.3770    -0.6470 n3         1 EE7      -0.726600
     42 NBN         -9.4880     1.9100    -1.2850 n          1 EE7      -0.484800
     43 OBS        -10.2130     3.9070    -2.0660 o          1 EE7      -0.570100
     44 SAI          9.3330     1.3430    -0.8440 ss         1 EE7      -0.073900
     45 H1           7.9540    -2.6400    -3.0180 h5         1 EE7       0.048100
     46 H2           5.9160     1.9320     0.1940 ha         1 EE7       0.149000
     47 H3           8.9360     4.1230     0.1210 hc         1 EE7       0.087700
     48 H4           7.3150     3.9930     0.7750 hc         1 EE7       0.087700
     49 H5           3.9050    -1.9880    -2.2360 h1         1 EE7       0.083700
     50 H6           2.1680    -0.3840    -0.3160 hc         1 EE7       0.055200
     51 H7           2.2350    -0.2020    -2.0680 hc         1 EE7       0.055200
     52 H8           0.2730    -1.5200    -1.3460 h1         1 EE7       0.036700
     53 H9           1.3280    -2.4460    -2.4090 h1         1 EE7       0.036700
     54 H10          2.8090    -4.2010    -1.3480 h1         1 EE7       0.036700
     55 H11          2.6900    -4.4010     0.3990 h1         1 EE7       0.036700
     56 H12          4.7400    -3.1680    -0.2480 hc         1 EE7       0.055200
     57 H13          3.6940    -2.2050     0.7950 hc         1 EE7       0.055200
     58 H14          0.5190    -4.7810     0.2550 h1         1 EE7       0.037200
     59 H15          0.1990    -4.4220    -1.4340 h1         1 EE7       0.037200
     60 H16         -1.7860    -3.4820    -2.0700 ha         1 EE7       0.128000
     61 H17         -4.0050    -2.5460    -1.5980 ha         1 EE7       0.139000
     62 H18         -0.1460    -4.2680     2.5480 hc         1 EE7       0.051033
     63 H19          0.6470    -2.7810     2.0640 hc         1 EE7       0.051033
     64 H20         -0.6310    -2.7500     3.2870 hc         1 EE7       0.051033
     65 H21         -2.7770    -1.9910     3.7380 ha         1 EE7       0.166000
     66 H22         -6.7530    -1.7100     1.0000 h1         1 EE7       0.069700
     67 H23         -5.9830    -2.0740    -0.5230 h1         1 EE7       0.069700
     68 H24         -5.7050     0.6570     0.8450 h1         1 EE7       0.048200
     69 H25         -5.1310     0.2020    -0.7530 h1         1 EE7       0.048200
     70 H26         -8.0530     1.4030     1.0010 h1         1 EE7       0.045200
     71 H27         -8.3550    -0.3350     0.9450 h1         1 EE7       0.045200
     72 H28         -9.8580    -0.1130    -0.9420 h1         1 EE7       0.061450
     73 H29        -10.3550     0.9410     0.3710 h1         1 EE7       0.061450
     74 H30         -8.3250     2.7010    -2.8240 h1         1 EE7       0.061450
     75 H31         -8.5960     0.9610    -2.9120 h1         1 EE7       0.061450
     76 H32         -6.3010     1.3800    -2.2390 h1         1 EE7       0.045200
     77 H33         -6.8140     2.4510    -0.9290 h1         1 EE7       0.045200
     78 H34        -12.0620     2.0930    -0.3470 h1         1 EE7       0.057200
     79 H35        -11.0080     2.9770     0.7700 h1         1 EE7       0.057200
     80 H36          4.4580     0.2280    -0.4080 hn         1 EE7       0.437800
     81 CAV          0.2760    -3.9650    -0.4320 c3         1 EE7       0.221100
     82 CBI         -5.9060    -1.4480     0.3650 c3         1 EE7       0.045300
@<TRIPOS>BOND
     1     1     2 ar  
     2     1     5 ar  
     3     1    44 1   
     4     2     3 ar  
     5     2     7 1   
     6     3     4 ar  
     7     3    37 1   
     8     4     6 ar  
     9     5     6 ar  
    10     6    45 1   
    11     7     8 2   
    12     7    46 1   
    13     8     9 1   
    14     8    44 1   
    15     9    10 1   
    16     9    47 1   
    17     9    48 1   
    18    10    33 1   
    19    10    34 1   
    20    10    35 1   
    21    11    12 1   
    22    11    15 1   
    23    11    37 1   
    24    11    49 1   
    25    12    13 1   
    26    12    50 1   
    27    12    51 1   
    28    13    38 1   
    29    13    52 1   
    30    13    53 1   
    31    14    15 1   
    32    14    38 1   
    33    14    54 1   
    34    14    55 1   
    35    15    56 1   
    36    15    57 1   
    37    16    17 ar  
    38    16    21 ar  
    39    16    81 1   
    40    17    18 ar  
    41    17    60 1   
    42    18    19 ar  
    43    18    61 1   
    44    19    20 ar  
    45    19    39 1   
    46    20    21 ar  
    47    20    24 1   
    48    21    22 1   
    49    22    62 1   
    50    22    63 1   
    51    22    64 1   
    52    23    24 2   
    53    23    25 1   
    54    23    39 1   
    55    24    65 1   
    56    25    40 3   
    57    26    41 1   
    58    26    68 1   
    59    26    69 1   
    60    26    82 1   
    61    27    28 1   
    62    27    41 1   
    63    27    70 1   
    64    27    71 1   
    65    28    42 1   
    66    28    72 1   
    67    28    73 1   
    68    29    30 1   
    69    29    42 1   
    70    29    74 1   
    71    29    75 1   
    72    30    41 1   
    73    30    76 1   
    74    30    77 1   
    75    31    32 1   
    76    31    42 1   
    77    31    43 2   
    78    32    36 1   
    79    32    78 1   
    80    32    79 1   
    81    37    80 1   
    82    38    81 1   
    83    39    82 1   
    84    58    81 1   
    85    59    81 1   
    86    66    82 1   
    87    67    82 1   
@<TRIPOS>SUBSTRUCTURE
     1 EE7         1 TEMP              0 ****  ****    0 ROOT
