@<TRIPOS>MOLECULE
EE8
   26    26     1     0     0
SMALL
abcg2


@<TRIPOS>ATOM
      1 C1           1.4760     0.0050     0.1140 ca         1 EE8      -0.050000
      2 C2           0.5800     1.0760     0.1580 ca         1 EE8      -0.129000
      3 C3           0.9610    -1.2860     0.0420 ca         1 EE8      -0.090000
      4 C13         -3.2220    -1.8500     0.0200 c3         1 EE8       0.164600
      5 C14         -4.7230    -1.7000     0.0370 c3         1 EE8      -0.094100
      6 N4           2.8370     0.3270     0.1560 ns         1 EE8      -0.144000
      7 C5          -0.7800     0.8550     0.1370 ca         1 EE8       0.105000
      8 C6          -0.4130    -1.4930     0.0200 ca         1 EE8      -0.171000
      9 C7           3.9140    -0.4910     0.0580 c          1 EE8       0.608100
     10 C8          -1.3130    -0.4350     0.0680 ca         1 EE8       0.131100
     11 CL9         -1.8620     2.2030     0.1970 cl         1 EE8      -0.186000
     12 C10          5.2440     0.2100     0.1770 c3         1 EE8      -0.181100
     13 O11          3.8370    -1.6980    -0.1020 o          1 EE8      -0.587100
     14 O12         -2.6480    -0.5480     0.0550 os         1 EE8      -0.333100
     15 H1           0.9500     2.0930     0.2110 ha         1 EE8       0.124000
     16 H2           1.6130    -2.1420     0.0050 ha         1 EE8       0.151000
     17 H3          -2.8830    -2.4310     0.8840 h1         1 EE8       0.034700
     18 H4          -2.8980    -2.3770    -0.8830 h1         1 EE8       0.034700
     19 H5          -5.0630    -1.1980     0.9440 hc         1 EE8       0.048700
     20 H6          -5.0800    -1.1400    -0.8270 hc         1 EE8       0.048700
     21 H7          -5.1830    -2.6870     0.0090 hc         1 EE8       0.048700
     22 H8           3.0340     1.3080     0.2770 hn         1 EE8       0.150000
     23 H9          -0.7690    -2.5130    -0.0350 ha         1 EE8       0.122000
     24 H10          5.1720     1.2940     0.2240 hc         1 EE8       0.063700
     25 H11          5.7490    -0.1390     1.0790 hc         1 EE8       0.063700
     26 H12          5.8720    -0.0600    -0.6710 hc         1 EE8       0.063700
@<TRIPOS>BOND
     1     1     2 ar  
     2     1     3 ar  
     3     1     6 1   
     4     2     7 ar  
     5     2    15 1   
     6     3     8 ar  
     7     3    16 1   
     8     4     5 1   
     9     4    14 1   
    10     4    17 1   
    11     4    18 1   
    12     5    19 1   
    13     5    20 1   
    14     5    21 1   
    15     6     9 1   
    16     6    22 1   
    17     7    10 ar  
    18     7    11 1   
    19     8    10 ar  
    20     8    23 1   
    21     9    12 1   
    22     9    13 2   
    23    10    14 1   
    24    12    24 1   
    25    12    25 1   
    26    12    26 1   
@<TRIPOS>SUBSTRUCTURE
     1 EE8         1 TEMP              0 ****  ****    0 ROOT
