@<TRIPOS>MOLECULE
EE8
   26    26     1     0     0
SMALL
No Charge or Current Charge


@<TRIPOS>ATOM
      1 C1           1.4990    -0.0100     0.1420 ca         1 EE8      -0.050000
      2 C2           0.6070     1.0670     0.3020 ca         1 EE8      -0.129000
      3 C3           0.9740    -1.3110    -0.0220 ca         1 EE8      -0.090000
      4 C13         -3.2980    -1.8990    -0.0270 c3         1 EE8       0.164600
      5 C14         -4.8200    -1.6930     0.0270 c3         1 EE8      -0.094100
      6 N4           2.8930     0.2830     0.1570 ns         1 EE8      -0.144000
      7 C5          -0.7820     0.8570     0.2980 ca         1 EE8       0.105000
      8 C6          -0.4170    -1.5260    -0.0270 ca         1 EE8      -0.171000
      9 C7           4.0210    -0.5180     0.0300 c          1 EE8       0.608100
     10 C8          -1.3070    -0.4410     0.1340 ca         1 EE8       0.131100
     11 Cl9         -1.8540     2.2450     0.5020 cl         1 EE8      -0.186000
     12 C10          5.3390     0.2480     0.1100 c3         1 EE8      -0.181100
     13 O11          3.9990    -1.7330    -0.1330 o          1 EE8      -0.587100
     14 O12         -2.6810    -0.6110     0.1350 os         1 EE8      -0.333100
     15 H1           0.9900     2.0770     0.4300 ha         1 EE8       0.124000
     16 H2           1.6250    -2.1710    -0.1480 ha         1 EE8       0.151000
     17 H3          -2.9930    -2.5810     0.7780 h1         1 EE8       0.034700
     18 H4          -3.0240    -2.3450    -0.9920 h1         1 EE8       0.034700
     19 H5          -5.1170    -1.2590     0.9890 hc         1 EE8       0.048700
     20 H6          -5.1470    -1.0230    -0.7770 hc         1 EE8       0.048700
     21 H7          -5.3370    -2.6520    -0.0920 hc         1 EE8       0.048700
     22 H8           3.1010     1.2650     0.2860 hn         1 EE8       0.150000
     23 H9          -0.7820    -2.5410    -0.1560 ha         1 EE8       0.122000
     24 H10          5.3350     1.0440    -0.6440 hc         1 EE8       0.063700
     25 H11          5.3650     0.8160     1.0470 hc         1 EE8       0.063700
     26 H12          6.2140    -0.4040     0.0070 hc         1 EE8       0.063700
@<TRIPOS>BOND
     1     1     2 ar  
     2     1     3 ar  
     3     1     6 1   
     4     2     7 ar  
     5     2    15 1   
     6     3     8 ar  
     7     3    16 1   
     8     4     5 1   
     9     4    14 1   
    10     4    17 1   
    11     4    18 1   
    12     5    19 1   
    13     5    20 1   
    14     5    21 1   
    15     6     9 1   
    16     6    22 1   
    17     7    10 ar  
    18     7    11 1   
    19     8    10 ar  
    20     8    23 1   
    21     9    12 1   
    22     9    13 2   
    23    10    14 1   
    24    12    24 1   
    25    12    25 1   
    26    12    26 1   
@<TRIPOS>SUBSTRUCTURE
     1 EE8         1 TEMP              0 ****  ****    0 ROOT
