@<TRIPOS>MOLECULE
EE9
   59    63     1     0     0
SMALL
No Charge or Current Charge


@<TRIPOS>ATOM
      1 C10        -13.4670    -8.2330     2.8240 c3         1 EE9      -0.110600
      2 C13        -10.8090    -7.7130    -0.2170 ca         1 EE9      -0.186000
      3 C20         -7.8530    -9.8600     2.0690 cp         1 EE9       0.221500
      4 C21         -8.5320   -10.0120     3.3920 cp         1 EE9      -0.188500
      5 C22         -9.1680    -8.9490     4.1030 ca         1 EE9       0.019000
      6 C24         -9.7830    -6.5980     4.4190 ca         1 EE9      -0.097000
      7 C26        -10.5130    -8.2570     6.0340 ca         1 EE9      -0.085000
      8 C28         -9.8620   -10.5920     5.7580 ca         1 EE9       0.372900
      9 C01        -13.2420    -3.8750    -2.2520 c3         1 EE9       0.081300
     10 C03        -12.0330    -5.8870    -1.2900 ca         1 EE9      -0.107000
     11 C04        -11.0230    -5.8340    -2.2770 ca         1 EE9      -0.086000
     12 C05         -9.8880    -6.6560    -2.1800 ca         1 EE9      -0.186000
     13 C06        -11.9340    -6.8810    -0.2810 ca         1 EE9       0.315000
     14 C08        -12.7050    -7.0990     2.1090 c3         1 EE9       0.238500
     15 C09        -12.9300    -5.7330     2.7910 c3         1 EE9      -0.110600
     16 C11        -14.3650    -6.7140     0.1830 c6         1 EE9       0.153500
     17 C12        -14.9440    -7.9320    -0.5840 c3         1 EE9      -0.117100
     18 C14         -9.7600    -7.5850    -1.1390 ca         1 EE9       0.329000
     19 C16         -7.9530    -9.1120    -0.1100 ca         1 EE9       0.389900
     20 C18         -6.1290   -10.3720     0.4540 ca         1 EE9       0.154900
     21 C19         -6.6320   -10.5010     1.7600 ca         1 EE9      -0.268000
     22 C23         -9.1260    -7.5990     3.6820 ca         1 EE9      -0.096000
     23 C25        -10.4830    -6.9270     5.5900 ca         1 EE9      -0.112000
     24 C27         -9.8520    -9.2620     5.3000 ca         1 EE9      -0.107000
     25 C30         -8.5990   -11.3070     3.9620 ca         1 EE9       0.344900
     26 C32        -14.4390    -5.4480    -0.7260 c          1 EE9       0.565000
     27 N02        -13.2560    -5.1150    -1.4370 n          1 EE9      -0.202400
     28 N07        -12.9820    -7.0580     0.6510 nh         1 EE9      -0.818400
     29 N17         -6.7920    -9.6730    -0.4880 nb         1 EE9      -0.242000
     30 N29         -9.2420   -11.6020     5.1110 nb         1 EE9      -0.663000
     31 N31         -8.5000    -9.1720     1.1140 nb         1 EE9      -0.237000
     32 O33        -15.4650    -4.7730    -0.7950 o          1 EE9      -0.553000
     33 H102       -13.1570    -8.2990     3.8740 hc         1 EE9       0.042700
     34 H101       -14.5490    -8.0650     2.7950 hc         1 EE9       0.042700
     35 H103       -13.2520    -9.1960     2.3470 hc         1 EE9       0.042700
     36 H131       -10.7890    -8.4850     0.5380 ha         1 EE9       0.156000
     37 H241        -9.7450    -5.5640     4.0830 ha         1 EE9       0.119000
     38 H261       -11.0460    -8.5060     6.9500 ha         1 EE9       0.119000
     39 H281       -10.3780   -10.8590     6.6800 h4         1 EE9       0.021100
     40 H012       -13.9850    -3.1540    -1.8900 h1         1 EE9       0.048033
     41 H013       -12.2570    -3.3970    -2.1910 h1         1 EE9       0.048033
     42 H011       -13.4610    -4.1220    -3.2980 h1         1 EE9       0.048033
     43 H041       -11.0960    -5.1510    -3.1200 ha         1 EE9       0.119000
     44 H051        -9.1060    -6.5700    -2.9300 ha         1 EE9       0.115000
     45 H081       -11.6400    -7.3260     2.2540 h1         1 EE9       0.063700
     46 H091       -12.6240    -5.7740     3.8430 hc         1 EE9       0.042700
     47 H093       -12.3360    -4.9560     2.2960 hc         1 EE9       0.042700
     48 H092       -13.9840    -5.4360     2.7600 hc         1 EE9       0.042700
     49 H111       -15.0290    -6.5030     1.0340 h1         1 EE9       0.089700
     50 H122       -14.9560    -8.8270     0.0490 hc         1 EE9       0.049700
     51 H123       -15.9730    -7.7400    -0.9070 hc         1 EE9       0.049700
     52 H121       -14.3500    -8.1610    -1.4770 hc         1 EE9       0.049700
     53 H181        -5.1910   -10.8390     0.1570 h4         1 EE9       0.026100
     54 H191        -6.0940   -11.0790     2.5060 ha         1 EE9       0.141000
     55 H231        -8.5760    -7.3000     2.7960 ha         1 EE9       0.134000
     56 H251       -10.9900    -6.1510     6.1580 ha         1 EE9       0.119000
     57 H301        -8.1360   -12.1530     3.4540 h4         1 EE9       0.023100
     58 H151        -8.0430    -8.3070    -1.9450 hn         1 EE9       0.512000
     59 N15         -8.6020    -8.3720    -1.0950 nu         1 EE9      -0.924900
@<TRIPOS>BOND
     1     1    14 1   
     2     1    33 1   
     3     1    34 1   
     4     1    35 1   
     5     2    13 ar  
     6     2    18 ar  
     7     2    36 1   
     8     3     4 1   
     9     3    21 ar  
    10     3    31 ar  
    11     4     5 ar  
    12     4    25 ar  
    13     5    22 ar  
    14     5    24 ar  
    15     6    22 ar  
    16     6    23 ar  
    17     6    37 1   
    18     7    23 ar  
    19     7    24 ar  
    20     7    38 1   
    21     8    24 ar  
    22     8    30 ar  
    23     8    39 1   
    24     9    27 1   
    25     9    40 1   
    26     9    41 1   
    27     9    42 1   
    28    10    11 ar  
    29    10    13 ar  
    30    10    27 1   
    31    11    12 ar  
    32    11    43 1   
    33    12    18 ar  
    34    12    44 1   
    35    13    28 1   
    36    14    15 1   
    37    14    28 1   
    38    14    45 1   
    39    15    46 1   
    40    15    47 1   
    41    15    48 1   
    42    16    17 1   
    43    16    26 1   
    44    16    28 1   
    45    16    49 1   
    46    17    50 1   
    47    17    51 1   
    48    17    52 1   
    49    18    59 1   
    50    19    29 ar  
    51    19    31 ar  
    52    19    59 1   
    53    20    21 ar  
    54    20    29 ar  
    55    20    53 1   
    56    21    54 1   
    57    22    55 1   
    58    23    56 1   
    59    25    30 ar  
    60    25    57 1   
    61    26    27 1   
    62    26    32 2   
    63    58    59 1   
@<TRIPOS>SUBSTRUCTURE
     1 EE9         1 TEMP              0 ****  ****    0 ROOT
