@<TRIPOS>MOLECULE
EE9
   59    63     1     0     0
SMALL
bcc


@<TRIPOS>ATOM
      1 C10        -12.6870    -8.1950     2.5570 c3         1 EE9      -0.110600
      2 C13        -10.6530    -7.3290    -0.0570 ca         1 EE9      -0.204000
      3 C20         -8.0620    -9.8480     2.0270 cp         1 EE9       0.549800
      4 C21         -8.8010   -10.0780     3.2850 cp         1 EE9      -0.253800
      5 C22         -9.3710    -9.0280     4.0590 ca         1 EE9       0.019000
      6 C24         -9.8090    -6.7160     4.5980 ca         1 EE9      -0.115000
      7 C26        -10.6610    -8.4230     6.0570 ca         1 EE9      -0.103000
      8 C28        -10.1680   -10.7790     5.5460 ca         1 EE9       0.438200
      9 C01        -13.3470    -4.2640    -2.6800 c3         1 EE9       0.081300
     10 C03        -12.1240    -6.0170    -1.4640 ca         1 EE9      -0.014400
     11 C04        -11.2280    -6.1760    -2.5110 ca         1 EE9      -0.104000
     12 C05        -10.0510    -6.8850    -2.3440 ca         1 EE9      -0.204000
     13 C06        -11.8380    -6.6120    -0.2220 ca         1 EE9       0.176600
     14 C08        -12.4440    -6.7380     2.1690 c3         1 EE9       0.238500
     15 C09        -13.1600    -5.7940     3.1280 c3         1 EE9      -0.110600
     16 C11        -14.1410    -6.4160     0.3310 c6         1 EE9       0.153500
     17 C12        -14.6490    -7.7530    -0.2210 c3         1 EE9      -0.117100
     18 C14         -9.7470    -7.4610    -1.1100 ca         1 EE9       0.190600
     19 C16         -7.9940    -8.9090    -0.0400 ca         1 EE9       0.915900
     20 C18         -6.2440   -10.1990     0.5720 ca         1 EE9       0.483200
     21 C19         -6.8290   -10.4450     1.8060 ca         1 EE9      -0.416600
     22 C23         -9.2450    -7.6500     3.7700 ca         1 EE9      -0.114000
     23 C25        -10.5310    -7.0980     5.7470 ca         1 EE9      -0.130000
     24 C27        -10.0780    -9.4050     5.2270 ca         1 EE9      -0.172300
     25 C30         -8.9560   -11.3710     3.7210 ca         1 EE9       0.410200
     26 C32        -14.3100    -5.3370    -0.7220 c          1 EE9       0.707500
     27 N02        -13.2740    -5.2170    -1.5890 n          1 EE9      -0.362000
     28 N07        -12.7640    -6.4260     0.7800 nh         1 EE9      -0.680000
     29 N17         -6.8060    -9.4450    -0.3520 nb         1 EE9      -0.768000
     30 N29         -9.6300   -11.7280     4.8320 nb         1 EE9      -0.663000
     31 N31         -8.6370    -9.0770     1.1090 nb         1 EE9      -0.763000
     32 O33        -15.3250    -4.6620    -0.7920 o          1 EE9      -0.628500
     33 H102       -12.3000    -8.3820     3.5590 hc         1 EE9       0.042700
     34 H101       -13.7530    -8.4300     2.5670 hc         1 EE9       0.042700
     35 H103       -12.1900    -8.8870     1.8770 hc         1 EE9       0.042700
     36 H131       -10.4320    -7.8000     0.8850 ha         1 EE9       0.174000
     37 H241        -9.7020    -5.6650     4.3640 ha         1 EE9       0.137000
     38 H261       -11.2000    -8.7350     6.9430 ha         1 EE9       0.137000
     39 H281       -10.7080   -11.0750     6.4410 h4         1 EE9       0.021100
     40 H012       -14.1780    -3.5880    -2.5130 h1         1 EE9       0.048033
     41 H013       -12.4270    -3.6840    -2.7280 h1         1 EE9       0.048033
     42 H011       -13.4970    -4.7640    -3.6380 h1         1 EE9       0.048033
     43 H041       -11.4300    -5.7350    -3.4780 ha         1 EE9       0.137000
     44 H051        -9.3700    -6.9870    -3.1790 ha         1 EE9       0.133000
     45 H081       -11.3770    -6.5320     2.2740 h1         1 EE9       0.063700
     46 H091       -12.7830    -5.9520     4.1380 hc         1 EE9       0.042700
     47 H093       -12.9840    -4.7520     2.8620 hc         1 EE9       0.042700
     48 H092       -14.2370    -5.9660     3.1590 hc         1 EE9       0.042700
     49 H111       -14.7740    -6.1200     1.1660 h1         1 EE9       0.089700
     50 H122       -14.6110    -8.5260     0.5450 hc         1 EE9       0.049700
     51 H123       -15.6850    -7.6580    -0.5480 hc         1 EE9       0.049700
     52 H121       -14.0560    -8.0920    -1.0720 hc         1 EE9       0.049700
     53 H181        -5.2790   -10.6270     0.3260 h4         1 EE9       0.026100
     54 H191        -6.3390   -11.0540     2.5510 ha         1 EE9       0.159000
     55 H231        -8.7060    -7.3250     2.8920 ha         1 EE9       0.152000
     56 H251       -10.9720    -6.3410     6.3810 ha         1 EE9       0.137000
     57 H301        -8.5370   -12.1870     3.1420 h4         1 EE9       0.023100
     58 H151        -7.9740    -8.1280    -1.8610 hn         1 EE9       0.456800
     59 N15         -8.5390    -8.1500    -1.0250 nu         1 EE9      -0.731300
@<TRIPOS>BOND
     1     1    14 1   
     2     1    33 1   
     3     1    34 1   
     4     1    35 1   
     5     2    13 ar  
     6     2    18 ar  
     7     2    36 1   
     8     3     4 1   
     9     3    21 ar  
    10     3    31 ar  
    11     4     5 ar  
    12     4    25 ar  
    13     5    22 ar  
    14     5    24 ar  
    15     6    22 ar  
    16     6    23 ar  
    17     6    37 1   
    18     7    23 ar  
    19     7    24 ar  
    20     7    38 1   
    21     8    24 ar  
    22     8    30 ar  
    23     8    39 1   
    24     9    27 1   
    25     9    40 1   
    26     9    41 1   
    27     9    42 1   
    28    10    11 ar  
    29    10    13 ar  
    30    10    27 1   
    31    11    12 ar  
    32    11    43 1   
    33    12    18 ar  
    34    12    44 1   
    35    13    28 1   
    36    14    15 1   
    37    14    28 1   
    38    14    45 1   
    39    15    46 1   
    40    15    47 1   
    41    15    48 1   
    42    16    17 1   
    43    16    26 1   
    44    16    28 1   
    45    16    49 1   
    46    17    50 1   
    47    17    51 1   
    48    17    52 1   
    49    18    59 1   
    50    19    29 ar  
    51    19    31 ar  
    52    19    59 1   
    53    20    21 ar  
    54    20    29 ar  
    55    20    53 1   
    56    21    54 1   
    57    22    55 1   
    58    23    56 1   
    59    25    30 ar  
    60    25    57 1   
    61    26    27 1   
    62    26    32 2   
    63    58    59 1   
@<TRIPOS>SUBSTRUCTURE
     1 EE9         1 TEMP              0 ****  ****    0 ROOT
