@<TRIPOS>MOLECULE
EEA
   68    70     1     0     0
SMALL
abcg2


@<TRIPOS>ATOM
      1 C1          -0.8940    -0.7650     0.3860 c3         1 EEA      -0.160400
      2 CL1         11.5040     2.3260    -1.5150 cl         1 EEA      -0.212000
      3 C2           0.0590    -1.1610     1.5130 c3         1 EEA      -0.112700
      4 O2          -2.7490    -1.0630     1.8780 o          1 EEA      -0.617100
      5 C3           1.4250    -1.4470     1.0100 cc         1 EEA       0.202300
      6 C4           2.6010    -0.7860     1.1090 cd         1 EEA      -0.252000
      7 C5           3.5130    -1.5990     0.3840 cd         1 EEA       0.320500
      8 C6           4.9440    -1.3810     0.1610 ca         1 EEA      -0.113500
      9 C7           5.7350    -2.3560    -0.4500 ca         1 EEA      -0.083500
     10 C8           7.0850    -2.1400    -0.6550 ca         1 EEA      -0.105000
     11 C9           7.6910    -0.9450    -0.2610 cp         1 EEA      -0.043000
     12 C10          6.8970     0.0250     0.3490 ca         1 EEA      -0.105000
     13 C11          5.5450    -0.1890     0.5580 ca         1 EEA      -0.083500
     14 C12         -2.2950    -0.4950     0.8960 c          1 EEA       0.605100
     15 N12          2.9080    -2.6500    -0.1000 nc         1 EEA      -0.377300
     16 O12          1.6090    -2.5580     0.2880 os         1 EEA      -0.062700
     17 C18          9.1320    -0.7190    -0.4830 cp         1 EEA      -0.013000
     18 C19          9.5960     0.5460    -0.8450 ca         1 EEA      -0.094000
     19 C20         10.9500     0.7490    -1.0510 ca         1 EEA       0.120000
     20 C21         11.8690    -0.2780    -0.9050 ca         1 EEA      -0.109000
     21 C22         11.4040    -1.5350    -0.5460 ca         1 EEA      -0.106000
     22 C23         10.0520    -1.7570    -0.3380 ca         1 EEA      -0.101000
     23 N2          -2.9870     0.3960     0.1650 ns         1 EEA      -0.471900
     24 C13         -4.3580     0.7670     0.4110 c3         1 EEA       0.020700
     25 C14         -5.2130     0.3980    -0.7940 c          1 EEA       0.591100
     26 O1          -4.7930     0.5020    -1.9370 o          1 EEA      -0.646100
     27 C15         -4.4980     2.2720     0.6740 c3         1 EEA      -0.065400
     28 C16         -3.7790     2.7110     1.9380 c3         1 EEA      -0.205400
     29 C17         -3.8710     4.2150     2.2530 c          1 EEA       0.717000
     30 O4          -4.2960     4.9720     1.3580 o          1 EEA      -0.744000
     31 O4E         -3.4880     4.5580     3.3910 o          1 EEA      -0.744000
     32 N1          -6.4600    -0.0060    -0.5090 ns         1 EEA      -0.464900
     33 C24         -7.4630    -0.1380    -1.5320 c3         1 EEA       0.025700
     34 C28         -7.7700     1.2320    -2.1470 c          1 EEA       0.587100
     35 O9          -7.6070     2.2700    -1.5270 o          1 EEA      -0.596100
     36 C25         -8.7400    -0.7510    -0.9540 c3         1 EEA      -0.063400
     37 C26         -8.5380    -2.1680    -0.4430 c3         1 EEA      -0.210400
     38 C27         -9.8230    -2.8790     0.0240 c          1 EEA       0.717000
     39 O8         -10.9100    -2.2990    -0.1640 o          1 EEA      -0.743500
     40 O8E         -9.6620    -4.0000     0.5500 o          1 EEA      -0.743500
     41 N9          -8.2650     1.1780    -3.3900 nt         1 EEA      -0.613000
     42 H1          -0.5050     0.1060    -0.1460 hc         1 EEA       0.063200
     43 H2          -0.9640    -1.5700    -0.3510 hc         1 EEA       0.063200
     44 H4           0.1360    -0.3540     2.2420 hc         1 EEA       0.085200
     45 H5          -0.3280    -2.0340     2.0420 hc         1 EEA       0.085200
     46 H7           2.7870     0.1400     1.6250 ha         1 EEA       0.156000
     47 H8           5.2940    -3.2890    -0.7740 ha         1 EEA       0.129500
     48 H9           7.6690    -2.9070    -1.1470 ha         1 EEA       0.113500
     49 H12          7.3390     0.9550     0.6860 ha         1 EEA       0.113500
     50 H13          4.9630     0.5860     1.0380 ha         1 EEA       0.129500
     51 H19          8.9000     1.3630    -0.9880 ha         1 EEA       0.135000
     52 H20         12.9230    -0.1030    -1.0680 ha         1 EEA       0.124000
     53 H21         12.1090    -2.3460    -0.4220 ha         1 EEA       0.113000
     54 H22          9.7150    -2.7410    -0.0380 ha         1 EEA       0.121000
     55 H6          -2.5380     0.8110    -0.6370 hn         1 EEA       0.320500
     56 H14         -4.6940     0.2150     1.2910 h1         1 EEA       0.088700
     57 H15         -4.1170     2.8210    -0.1920 hc         1 EEA       0.064200
     58 H16         -5.5620     2.5110     0.7420 hc         1 EEA       0.064200
     59 H17         -4.1570     2.1480     2.7970 hc         1 EEA       0.018700
     60 H18         -2.7160     2.4520     1.8670 hc         1 EEA       0.018700
     61 H3          -6.7650     0.0080     0.4520 hn         1 EEA       0.332500
     62 H23         -7.0850    -0.8000    -2.3180 h1         1 EEA       0.061700
     63 H24         -9.1210    -0.1040    -0.1570 hc         1 EEA       0.053700
     64 H25         -9.5020    -0.7520    -1.7360 hc         1 EEA       0.053700
     65 H26         -8.0830    -2.7770    -1.2340 hc         1 EEA       0.023700
     66 H27         -7.8190    -2.1880     0.3820 hc         1 EEA       0.023700
     67 H10         -8.3780     0.3060    -3.8790 hn         1 EEA       0.301000
     68 H11         -8.5600     2.0150    -3.8640 hn         1 EEA       0.301000
@<TRIPOS>BOND
     1     1     3 1   
     2     1    14 1   
     3     1    42 1   
     4     1    43 1   
     5     2    19 1   
     6     3     5 1   
     7     3    44 1   
     8     3    45 1   
     9     4    14 2   
    10     5     6 2   
    11     5    16 1   
    12     6     7 1   
    13     6    46 1   
    14     7     8 1   
    15     7    15 2   
    16     8     9 ar  
    17     8    13 ar  
    18     9    10 ar  
    19     9    47 1   
    20    10    11 ar  
    21    10    48 1   
    22    11    12 ar  
    23    11    17 1   
    24    12    13 ar  
    25    12    49 1   
    26    13    50 1   
    27    14    23 1   
    28    15    16 1   
    29    17    18 ar  
    30    17    22 ar  
    31    18    19 ar  
    32    18    51 1   
    33    19    20 ar  
    34    20    21 ar  
    35    20    52 1   
    36    21    22 ar  
    37    21    53 1   
    38    22    54 1   
    39    23    24 1   
    40    23    55 1   
    41    24    25 1   
    42    24    27 1   
    43    24    56 1   
    44    25    26 2   
    45    25    32 1   
    46    27    28 1   
    47    27    57 1   
    48    27    58 1   
    49    28    29 1   
    50    28    59 1   
    51    28    60 1   
    52    29    30 1   
    53    29    31 1   
    54    32    33 1   
    55    32    61 1   
    56    33    34 1   
    57    33    36 1   
    58    33    62 1   
    59    34    35 2   
    60    34    41 1   
    61    36    37 1   
    62    36    63 1   
    63    36    64 1   
    64    37    38 1   
    65    37    65 1   
    66    37    66 1   
    67    38    39 1   
    68    38    40 1   
    69    41    67 1   
    70    41    68 1   
@<TRIPOS>SUBSTRUCTURE
     1 EEA         1 TEMP              0 ****  ****    0 ROOT
