@<TRIPOS>MOLECULE
EEA
   68    70     1     0     0
SMALL
No Charge or Current Charge


@<TRIPOS>ATOM
      1 C1          -1.1000    -1.3900     1.4160 c3         1 EEA      -0.160400
      2 Cl1         10.4060     0.9970    -4.2330 cl         1 EEA      -0.212000
      3 C2          -0.0400    -0.6470     2.2680 c3         1 EEA      -0.112700
      4 O2          -3.1200    -1.1590     2.7260 o          1 EEA      -0.617100
      5 C3           1.3610    -1.1240     2.0080 cc         1 EEA       0.202300
      6 C4           2.3830    -0.5720     1.3060 cd         1 EEA      -0.252000
      7 C5           3.4670    -1.4670     1.4050 cd         1 EEA       0.320500
      8 C6           4.8090    -1.3020     0.7970 ca         1 EEA      -0.113500
      9 C7           5.7780    -2.3280     0.8840 ca         1 EEA      -0.083500
     10 C8           7.0520    -2.1640     0.3150 ca         1 EEA      -0.105000
     11 C9           7.4100    -0.9720    -0.3590 cp         1 EEA      -0.043000
     12 C10          6.4350     0.0520    -0.4370 ca         1 EEA      -0.105000
     13 C11          5.1600    -0.1070     0.1320 ca         1 EEA      -0.083500
     14 C12         -2.5140    -0.8740     1.7020 c          1 EEA       0.605100
     15 N12          3.1560    -2.5320     2.1290 nc         1 EEA      -0.377300
     16 O12          1.7850    -2.3190     2.5310 os         1 EEA      -0.062700
     17 C18          8.7690    -0.7990    -0.9660 cp         1 EEA      -0.013000
     18 C19          8.9460    -0.0700    -2.1690 ca         1 EEA      -0.094000
     19 C20         10.2210     0.0910    -2.7370 ca         1 EEA       0.120000
     20 C21         11.3470    -0.4720    -2.1170 ca         1 EEA      -0.109000
     21 C22         11.1970    -1.1980    -0.9250 ca         1 EEA      -0.106000
     22 C23          9.9210    -1.3600    -0.3570 ca         1 EEA      -0.101000
     23 N2          -3.0630    -0.0990     0.7050 ns         1 EEA      -0.471900
     24 C13         -4.4000     0.5370     0.7510 c3         1 EEA       0.020700
     25 C14         -5.0920     0.4280    -0.6390 c          1 EEA       0.591100
     26 O1          -4.4880     0.1360    -1.6650 o          1 EEA      -0.646100
     27 C15         -4.3050     2.0180     1.2180 c3         1 EEA      -0.065400
     28 C16         -3.7060     2.2180     2.6360 c3         1 EEA      -0.205400
     29 C17         -3.7730     3.7020     3.0370 c          1 EEA       0.717000
     30 O4          -2.8390     4.4260     2.7280 o          1 EEA      -0.744000
     31 O4E         -4.7830     4.1030     3.5950 o          1 EEA      -0.744000
     32 N1          -6.4470     0.6910    -0.6360 ns         1 EEA      -0.464900
     33 C24         -7.3350     0.6370    -1.8210 c3         1 EEA       0.025700
     34 C28         -8.3150     1.8510    -1.8130 c          1 EEA       0.587100
     35 O9          -8.3980     2.6510    -0.8940 o          1 EEA      -0.596100
     36 C25         -8.0890    -0.7210    -1.9210 c3         1 EEA      -0.063400
     37 C26         -7.1740    -1.9720    -1.9990 c3         1 EEA      -0.210400
     38 C27         -8.0210    -3.2370    -2.2160 c          1 EEA       0.717000
     39 O8          -8.2810    -3.5660    -3.3640 o          1 EEA      -0.743500
     40 O8E         -8.4450    -3.8240    -1.2320 o          1 EEA      -0.743500
     41 N9          -9.1130     1.9940    -2.8970 nt         1 EEA      -0.613000
     42 H1          -0.8540    -1.2460     0.3560 hc         1 EEA       0.063200
     43 H2          -1.0600    -2.4570     1.6630 hc         1 EEA       0.063200
     44 H4          -0.1000     0.4290     2.0660 hc         1 EEA       0.085200
     45 H5          -0.2720    -0.7760     3.3320 hc         1 EEA       0.085200
     46 H7           2.3510     0.3700     0.7750 ha         1 EEA       0.156000
     47 H8           5.5490    -3.2640     1.3890 ha         1 EEA       0.129500
     48 H9           7.7660    -2.9810     0.3880 ha         1 EEA       0.113500
     49 H12          6.6740     0.9910    -0.9300 ha         1 EEA       0.113500
     50 H13          4.4510     0.7130     0.0520 ha         1 EEA       0.129500
     51 H19          8.0890     0.3630    -2.6750 ha         1 EEA       0.135000
     52 H20         12.3320    -0.3450    -2.5600 ha         1 EEA       0.124000
     53 H21         12.0680    -1.6340    -0.4390 ha         1 EEA       0.113000
     54 H22          9.8280    -1.9140     0.5740 ha         1 EEA       0.121000
     55 H6          -2.5020     0.0340    -0.1290 hn         1 EEA       0.320500
     56 H14         -5.0330    -0.0150     1.4580 h1         1 EEA       0.088700
     57 H15         -3.7080     2.5850     0.4920 hc         1 EEA       0.064200
     58 H16         -5.3100     2.4600     1.2020 hc         1 EEA       0.064200
     59 H17         -4.3220     1.6120     3.3120 hc         1 EEA       0.018700
     60 H18         -2.6600     1.8910     2.5780 hc         1 EEA       0.018700
     61 H3          -6.8580     0.9600     0.2510 hn         1 EEA       0.332500
     62 H23         -6.7210     0.7520    -2.7240 h1         1 EEA       0.061700
     63 H24         -8.7610    -0.8210    -1.0590 hc         1 EEA       0.053700
     64 H25         -8.7290    -0.7080    -2.8120 hc         1 EEA       0.053700
     65 H26         -6.5100    -1.8070    -2.8560 hc         1 EEA       0.023700
     66 H27         -6.6500    -2.0310    -1.0370 hc         1 EEA       0.023700
     67 H10         -9.0500     1.3410    -3.6650 hn         1 EEA       0.301000
     68 H11         -9.7640     2.7650    -2.9320 hn         1 EEA       0.301000
@<TRIPOS>BOND
     1     1     3 1   
     2     1    14 1   
     3     1    42 1   
     4     1    43 1   
     5     2    19 1   
     6     3     5 1   
     7     3    44 1   
     8     3    45 1   
     9     4    14 2   
    10     5     6 2   
    11     5    16 1   
    12     6     7 1   
    13     6    46 1   
    14     7     8 1   
    15     7    15 2   
    16     8     9 ar  
    17     8    13 ar  
    18     9    10 ar  
    19     9    47 1   
    20    10    11 ar  
    21    10    48 1   
    22    11    12 ar  
    23    11    17 1   
    24    12    13 ar  
    25    12    49 1   
    26    13    50 1   
    27    14    23 1   
    28    15    16 1   
    29    17    18 ar  
    30    17    22 ar  
    31    18    19 ar  
    32    18    51 1   
    33    19    20 ar  
    34    20    21 ar  
    35    20    52 1   
    36    21    22 ar  
    37    21    53 1   
    38    22    54 1   
    39    23    24 1   
    40    23    55 1   
    41    24    25 1   
    42    24    27 1   
    43    24    56 1   
    44    25    26 2   
    45    25    32 1   
    46    27    28 1   
    47    27    57 1   
    48    27    58 1   
    49    28    29 1   
    50    28    59 1   
    51    28    60 1   
    52    29    30 1   
    53    29    31 1   
    54    32    33 1   
    55    32    61 1   
    56    33    34 1   
    57    33    36 1   
    58    33    62 1   
    59    34    35 2   
    60    34    41 1   
    61    36    37 1   
    62    36    63 1   
    63    36    64 1   
    64    37    38 1   
    65    37    65 1   
    66    37    66 1   
    67    38    39 1   
    68    38    40 1   
    69    41    67 1   
    70    41    68 1   
@<TRIPOS>SUBSTRUCTURE
     1 EEA         1 TEMP              0 ****  ****    0 ROOT
