@<TRIPOS>MOLECULE
EEB
   75    77     1     0     0
SMALL
bcc


@<TRIPOS>ATOM
      1 N1U          1.6300     1.1040    -1.9260 n          1 EEB      -0.355000
      2 C2U          2.2990    -0.0230    -2.3680 c          1 EEB       0.825500
      3 N3U          3.6570     0.0070    -2.1770 ns         1 EEB      -0.601500
      4 C4U          4.4260     1.0160    -1.6260 c          1 EEB       0.745700
      5 C5U          3.6550     2.1680    -1.2390 cc         1 EEB      -0.409200
      6 C6U          2.3190     2.1520    -1.3920 cd         1 EEB       0.109600
      7 O2U          1.7560    -0.9600    -2.9090 o          1 EEB      -0.596500
      8 O4U          5.6330     0.8860    -1.5120 o          1 EEB      -0.688500
      9 C1D          0.1740     1.1730    -1.9720 c5         1 EEB       0.314500
     10 C2D         -0.4450     1.1940    -3.3670 c5         1 EEB       0.032100
     11 O2D         -0.3710     2.4900    -3.8940 oh         1 EEB      -0.593800
     12 C3D         -1.8640     0.7140    -3.0410 c5         1 EEB       0.091100
     13 C4D         -1.5880    -0.3310    -1.9640 c5         1 EEB       0.120100
     14 O4D         -0.3920     0.0950    -1.3040 os         1 EEB      -0.346600
     15 O3D         -2.6320     1.7570    -2.4960 oh         1 EEB      -0.557800
     16 C5D         -1.4480    -1.7100    -2.5790 c3         1 EEB       0.208400
     17 O5D         -1.0540    -2.6660    -1.6260 os         1 EEB      -0.573200
     18 PA          -1.9290    -4.0110    -1.3000 p5         1 EEB       1.479800
     19 O1A         -3.1930    -4.0160    -2.1050 o          1 EEB      -0.860500
     20 O2A         -1.0050    -5.1860    -1.3520 o          1 EEB      -0.860500
     21 O3A         -2.2650    -3.7980     0.2930 os         1 EEB      -0.705800
     22 PB          -3.0470    -2.5900     1.0720 p5         1 EEB       1.475800
     23 O1B         -3.6260    -3.2220     2.3010 o          1 EEB      -0.855500
     24 O2B         -3.8950    -1.7940     0.1350 o          1 EEB      -0.855500
     25 C1          -1.0180    -1.8460     2.6160 c6         1 EEB       0.391900
     26 C2          -0.5240    -0.5070     3.1770 c6         1 EEB       0.089700
     27 C3           0.4470     0.1350     2.1890 c6         1 EEB       0.108100
     28 C4           1.5850    -0.8440     1.9090 c6         1 EEB       0.096100
     29 C5           1.0170    -2.1690     1.3960 c6         1 EEB       0.154100
     30 C6           2.1140    -3.2060     1.2700 c3         1 EEB       0.148400
     31 C7          -2.4030     0.2840     4.5190 c          1 EEB       0.665100
     32 C8          -3.3950     1.4090     4.7050 c3         1 EEB      -0.171100
     33 N2          -1.5890     0.4170     3.4690 ns         1 EEB      -0.525900
     34 O1          -1.8100    -1.5940     1.4990 os         1 EEB      -0.581200
     35 O3           0.9380     1.3230     2.7720 os         1 EEB      -0.436600
     36 O4           2.4910    -0.3480     0.9490 oh         1 EEB      -0.604800
     37 O5           0.0720    -2.6710     2.3310 os         1 EEB      -0.421600
     38 O6           1.5760    -4.4050     0.7690 oh         1 EEB      -0.519800
     39 O7          -2.3720    -0.6720     5.2920 o          1 EEB      -0.684100
     40 C1E         -0.2270     3.0570     1.4210 c          1 EEB       0.920600
     41 C2E          1.0950     2.4200     1.8990 c3         1 EEB       0.013100
     42 C3E          1.9560     3.4540     2.6180 c3         1 EEB      -0.061400
     43 C4E          3.3420     2.9320     2.9710 c3         1 EEB      -0.085100
     44 O1E         -1.2880     2.7820     2.0230 o          1 EEB      -0.835300
     45 O2E         -0.1110     3.8460     0.4640 o          1 EEB      -0.835300
     46 HN3U         4.1480    -0.8220    -2.4910 hn         1 EEB       0.320500
     47 H5U          4.1450     3.0280    -0.8090 ha         1 EEB       0.151000
     48 H6U          1.7130     2.9910    -1.0750 h4         1 EEB       0.200000
     49 H1D         -0.0780     2.1150    -1.4700 h2         1 EEB       0.114700
     50 H2D          0.0410     0.4650    -4.0200 h1         1 EEB       0.063700
     51 HO2U        -0.4760     2.4410    -4.8490 ho         1 EEB       0.385000
     52 H3D         -2.3540     0.2760    -3.9210 h1         1 EEB       0.036700
     53 H4D         -2.3890    -0.3650    -1.2230 h1         1 EEB       0.165700
     54 HO3U        -2.4710     2.5460    -3.0270 ho         1 EEB       0.387000
     55 H5'1        -0.7120    -1.6990    -3.3880 h1         1 EEB       0.019200
     56 H5'2        -2.4160    -1.9660    -3.0200 h1         1 EEB       0.019200
     57 H1          -1.5880    -2.3780     3.3810 h2         1 EEB       0.105700
     58 H2           0.0250    -0.7420     4.0980 h1         1 EEB       0.031700
     59 H3          -0.0680     0.3450     1.2430 h1         1 EEB       0.114700
     60 H4           2.1060    -1.0410     2.8610 h1         1 EEB       0.008700
     61 H5           0.5460    -2.0130     0.4170 h1         1 EEB       0.123700
     62 H61          2.8870    -2.8000     0.6080 h1         1 EEB      -0.007800
     63 H62          2.5810    -3.3510     2.2570 h1         1 EEB      -0.007800
     64 H81         -3.2840     1.8330     5.7030 hc         1 EEB       0.041700
     65 H82         -3.2850     2.2090     3.9750 hc         1 EEB       0.041700
     66 H83         -4.4090     1.0150     4.6340 hc         1 EEB       0.041700
     67 HN2         -1.5750     1.3030     2.9480 hn         1 EEB       0.388500
     68 HO4          3.0400     0.3200     1.3690 ho         1 EEB       0.389000
     69 HO6          2.3080    -5.0030     0.5970 ho         1 EEB       0.361000
     70 H2E          1.6400     2.1060     1.0030 h1         1 EEB       0.015700
     71 HE31         1.4400     3.7930     3.5210 hc         1 EEB       0.038200
     72 HE32         2.0470     4.3230     1.9650 hc         1 EEB       0.038200
     73 HE41         3.9490     3.7130     3.4300 hc         1 EEB       0.015033
     74 HE42         3.2970     2.0950     3.6660 hc         1 EEB       0.015033
     75 HE43         3.8730     2.5960     2.0760 hc         1 EEB       0.015033
@<TRIPOS>BOND
     1     1     2 1   
     2     1     6 1   
     3     1     9 1   
     4     2     3 1   
     5     2     7 2   
     6     3     4 1   
     7     3    46 1   
     8     4     5 1   
     9     4     8 2   
    10     5     6 2   
    11     5    47 1   
    12     6    48 1   
    13     9    10 1   
    14     9    14 1   
    15     9    49 1   
    16    10    11 1   
    17    10    12 1   
    18    10    50 1   
    19    11    51 1   
    20    12    13 1   
    21    12    15 1   
    22    12    52 1   
    23    13    14 1   
    24    13    16 1   
    25    13    53 1   
    26    15    54 1   
    27    16    17 1   
    28    16    55 1   
    29    16    56 1   
    30    17    18 1   
    31    18    19 1   
    32    18    20 1   
    33    18    21 1   
    34    21    22 1   
    35    22    23 1   
    36    22    24 1   
    37    22    34 1   
    38    25    26 1   
    39    25    34 1   
    40    25    37 1   
    41    25    57 1   
    42    26    27 1   
    43    26    33 1   
    44    26    58 1   
    45    27    28 1   
    46    27    35 1   
    47    27    59 1   
    48    28    29 1   
    49    28    36 1   
    50    28    60 1   
    51    29    30 1   
    52    29    37 1   
    53    29    61 1   
    54    30    38 1   
    55    30    62 1   
    56    30    63 1   
    57    31    32 1   
    58    31    33 1   
    59    31    39 2   
    60    32    64 1   
    61    32    65 1   
    62    32    66 1   
    63    33    67 1   
    64    35    41 1   
    65    36    68 1   
    66    38    69 1   
    67    40    41 1   
    68    40    44 1   
    69    40    45 1   
    70    41    42 1   
    71    41    70 1   
    72    42    43 1   
    73    42    71 1   
    74    42    72 1   
    75    43    73 1   
    76    43    74 1   
    77    43    75 1   
@<TRIPOS>SUBSTRUCTURE
     1 EEB         1 TEMP              0 ****  ****    0 ROOT
