@<TRIPOS>MOLECULE
EEB
   75    77     1     0     0
SMALL
No Charge or Current Charge


@<TRIPOS>ATOM
      1 N1U          1.4520     1.5460    -1.9200 n          1 EEB      -0.288000
      2 C2U          2.3080     0.4200    -1.8980 c          1 EEB       0.616000
      3 N3U          3.6230     0.6740    -1.6570 ns         1 EEB      -0.467500
      4 C4U          4.2220     1.8680    -1.4390 c          1 EEB       0.603200
      5 C5U          3.3030     2.9950    -1.4810 cc         1 EEB      -0.459200
      6 C6U          1.9570     2.8290    -1.7140 cd         1 EEB       0.059600
      7 O2U          1.9450    -0.7230    -2.1170 o          1 EEB      -0.521000
      8 O4U          5.4170     1.9690    -1.2350 o          1 EEB      -0.613000
      9 C1D         -0.0180     1.3800    -2.0910 c5         1 EEB       0.337700
     10 C2D         -0.3110     1.1080    -3.6000 c5         1 EEB       0.055300
     11 O2D         -0.2210     2.2690    -4.4560 oh         1 EEB      -0.716000
     12 C3D         -1.7790     0.6260    -3.4500 c5         1 EEB       0.114300
     13 C4D         -1.6870    -0.2740    -2.1620 c5         1 EEB       0.143300
     14 O4D         -0.5700     0.2560    -1.3840 os         1 EEB      -0.393000
     15 O3D         -2.6350     1.7600    -3.2850 oh         1 EEB      -0.680000
     16 C5D         -1.4070    -1.7710    -2.4890 c3         1 EEB       0.231600
     17 O5D         -1.7530    -2.6130    -1.3790 os         1 EEB      -0.596400
     18 PA          -3.2730    -3.1020    -1.1620 p5         1 EEB       1.479800
     19 O1A         -4.2860    -2.1220    -1.6510 o          1 EEB      -0.860500
     20 O2A         -3.4690    -4.4190    -1.8390 o          1 EEB      -0.860500
     21 O3A         -3.3280    -3.3010     0.4010 os         1 EEB      -0.705800
     22 PB          -2.9600    -2.0820     1.3310 p5         1 EEB       1.475800
     23 O1B         -3.6550    -2.2980     2.6330 o          1 EEB      -0.855500
     24 O2B         -3.2650    -0.7310     0.7880 o          1 EEB      -0.855500
     25 C1          -0.7650    -2.3380     2.7530 c6         1 EEB       0.438300
     26 C2          -0.4050    -0.8970     3.2840 c6         1 EEB       0.089700
     27 C3           0.6070    -0.2510     2.3010 c6         1 EEB       0.131300
     28 C4           1.8660    -1.1560     2.1790 c6         1 EEB       0.119300
     29 C5           1.4400    -2.5800     1.7120 c6         1 EEB       0.177300
     30 C6           2.6490    -3.5710     1.6520 c3         1 EEB       0.171600
     31 C7          -2.4130    -0.0570     4.5720 c          1 EEB       0.598100
     32 C8          -3.4940     1.0200     4.5830 c3         1 EEB      -0.171100
     33 N2          -1.5570    -0.0040     3.5060 ns         1 EEB      -0.458900
     34 O1          -1.3830    -2.3470     1.4660 os         1 EEB      -0.604400
     35 O3           0.9880     1.0830     2.7330 os         1 EEB      -0.483000
     36 O4           2.8450    -0.5470     1.3240 oh         1 EEB      -0.727000
     37 O5           0.4490    -3.1170     2.6390 os         1 EEB      -0.468000
     38 O6           2.2740    -4.9160     1.3110 oh         1 EEB      -0.642000
     39 O7          -2.3050    -0.8940     5.4580 o          1 EEB      -0.684100
     40 C1E         -0.3740     2.7210     1.3490 c          1 EEB       0.710000
     41 C2E          1.0390     2.1260     1.7180 c3         1 EEB       0.036300
     42 C3E          1.9960     3.2250     2.2450 c3         1 EEB      -0.061400
     43 C4E          3.4460     2.7430     2.4590 c3         1 EEB      -0.085100
     44 O1E         -1.3650     2.3360     1.9590 o          1 EEB      -0.730000
     45 O2E         -0.4310     3.5500     0.4510 o          1 EEB      -0.730000
     46 HN3U         4.2260    -0.1310    -1.6310 hn         1 EEB       0.320500
     47 H5U          3.7420     3.9710    -1.3090 ha         1 EEB       0.201000
     48 H6U          1.2220     3.6350    -1.7430 h4         1 EEB       0.250000
     49 H1D         -0.5140     2.3020    -1.7620 h2         1 EEB       0.114700
     50 H2D          0.3190     0.2930    -3.9840 h1         1 EEB       0.063700
     51 HO2U         0.7240     2.3760    -4.7160 ho         1 EEB       0.484000
     52 H3D         -2.0970     0.0450    -4.3270 h1         1 EEB       0.036700
     53 H4D         -2.6140    -0.1930    -1.5820 h1         1 EEB       0.165700
     54 HO3U        -2.1960     2.4580    -3.8310 ho         1 EEB       0.486000
     55 H5'1        -0.3500    -1.8990    -2.7530 h1         1 EEB       0.019200
     56 H5'2        -1.9960    -2.0570    -3.3710 h1         1 EEB       0.019200
     57 H1          -1.4200    -2.8320     3.4890 h2         1 EEB       0.105700
     58 H2           0.0990    -1.0160     4.2540 h1         1 EEB       0.031700
     59 H3           0.1220    -0.1860     1.3130 h1         1 EEB       0.114700
     60 H4           2.3000    -1.2550     3.1850 h1         1 EEB       0.008700
     61 H5           1.0050    -2.5190     0.7030 h1         1 EEB       0.123700
     62 H61          3.3700    -3.1970     0.9140 h1         1 EEB      -0.007800
     63 H62          3.1500    -3.5650     2.6290 h1         1 EEB      -0.007800
     64 H81         -3.0170     2.0050     4.5310 hc         1 EEB       0.041700
     65 H82         -4.0460     0.9830     3.6360 hc         1 EEB       0.041700
     66 H83         -4.1640     0.9430     5.4470 hc         1 EEB       0.041700
     67 HN2         -1.6680     0.7940     2.8760 hn         1 EEB       0.388500
     68 HO4          2.8480     0.4000     1.5940 ho         1 EEB       0.488000
     69 HO6          3.0900    -5.4610     1.3670 ho         1 EEB       0.460000
     70 H2E          1.4700     1.7250     0.7930 h1         1 EEB       0.015700
     71 HE31         1.6020     3.6310     3.1850 hc         1 EEB       0.038200
     72 HE32         2.0150     4.0550     1.5280 hc         1 EEB       0.038200
     73 HE41         4.0780     3.5770     2.7860 hc         1 EEB       0.015033
     74 HE42         3.4930     1.9610     3.2250 hc         1 EEB       0.015033
     75 HE43         3.8630     2.3440     1.5270 hc         1 EEB       0.015033
@<TRIPOS>BOND
     1     1     2 1   
     2     1     6 1   
     3     1     9 1   
     4     2     3 1   
     5     2     7 2   
     6     3     4 1   
     7     3    46 1   
     8     4     5 1   
     9     4     8 2   
    10     5     6 2   
    11     5    47 1   
    12     6    48 1   
    13     9    10 1   
    14     9    14 1   
    15     9    49 1   
    16    10    11 1   
    17    10    12 1   
    18    10    50 1   
    19    11    51 1   
    20    12    13 1   
    21    12    15 1   
    22    12    52 1   
    23    13    14 1   
    24    13    16 1   
    25    13    53 1   
    26    15    54 1   
    27    16    17 1   
    28    16    55 1   
    29    16    56 1   
    30    17    18 1   
    31    18    19 1   
    32    18    20 1   
    33    18    21 1   
    34    21    22 1   
    35    22    23 1   
    36    22    24 1   
    37    22    34 1   
    38    25    26 1   
    39    25    34 1   
    40    25    37 1   
    41    25    57 1   
    42    26    27 1   
    43    26    33 1   
    44    26    58 1   
    45    27    28 1   
    46    27    35 1   
    47    27    59 1   
    48    28    29 1   
    49    28    36 1   
    50    28    60 1   
    51    29    30 1   
    52    29    37 1   
    53    29    61 1   
    54    30    38 1   
    55    30    62 1   
    56    30    63 1   
    57    31    32 1   
    58    31    33 1   
    59    31    39 2   
    60    32    64 1   
    61    32    65 1   
    62    32    66 1   
    63    33    67 1   
    64    35    41 1   
    65    36    68 1   
    66    38    69 1   
    67    40    41 1   
    68    40    44 1   
    69    40    45 1   
    70    41    42 1   
    71    41    70 1   
    72    42    43 1   
    73    42    71 1   
    74    42    72 1   
    75    43    73 1   
    76    43    74 1   
    77    43    75 1   
@<TRIPOS>SUBSTRUCTURE
     1 EEB         1 TEMP              0 ****  ****    0 ROOT
