@<TRIPOS>MOLECULE
EEC
   58    59     1     0     0
SMALL
abcg2


@<TRIPOS>ATOM
      1 O2          -0.4320    -1.0200     0.6590 o          1 EEC      -0.612100
      2 N3           5.4120    -1.9980    -1.1350 nc         1 EEC      -0.377300
      3 O5           4.0800    -1.9770    -0.8630 os         1 EEC      -0.062700
      4 C11          0.1380    -0.1350     0.0360 c          1 EEC       0.592100
      5 C12          1.5720    -0.2680    -0.4280 c3         1 EEC      -0.158400
      6 C13          2.4300    -0.9930     0.6100 c3         1 EEC      -0.113700
      7 C14          5.0030    -0.6190     0.5860 cd         1 EEC      -0.256000
      8 C16          5.9760    -1.1940    -0.2750 cd         1 EEC       0.323500
      9 C21          7.4270    -0.9860    -0.2700 ca         1 EEC      -0.123500
     10 C22          7.9750     0.0870     0.4310 ca         1 EEC      -0.081500
     11 C23          9.3470     0.2950     0.4390 ca         1 EEC      -0.121000
     12 C24         10.1860    -0.5670    -0.2530 ca         1 EEC      -0.108000
     13 C25          9.6470    -1.6390    -0.9530 ca         1 EEC      -0.121000
     14 C26          8.2770    -1.8490    -0.9630 ca         1 EEC      -0.081500
     15 C27          3.8350    -1.1570     0.1650 cc         1 EEC       0.202300
     16 N2          -0.4710     1.0130    -0.2940 ns         1 EEC      -0.466900
     17 C7          -1.8680     1.2370    -0.0210 c3         1 EEC       0.025700
     18 C6          -2.7270     0.2550    -0.8110 c          1 EEC       0.599100
     19 O1          -2.4230    -0.1150    -1.9330 o          1 EEC      -0.641100
     20 C8          -2.2670     2.6660    -0.3990 c3         1 EEC      -0.069400
     21 C9          -1.5470     3.7200     0.4270 c3         1 EEC      -0.208400
     22 C10         -1.9800     5.1720     0.1520 c          1 EEC       0.716000
     23 O4E         -3.0080     5.3520    -0.5300 o          1 EEC      -0.740500
     24 O4          -1.2620     6.0580     0.6600 o          1 EEC      -0.740500
     25 N1          -3.8560    -0.1290    -0.1960 ns         1 EEC      -0.463900
     26 C2          -4.8850    -0.8560    -0.8880 c3         1 EEC       0.028700
     27 C1          -5.5080     0.0210    -1.9780 c          1 EEC       0.588100
     28 O9          -5.5550     1.2360    -1.8810 o          1 EEC      -0.598100
     29 C3          -5.9660    -1.3140     0.0950 c3         1 EEC      -0.062400
     30 C4          -5.4400    -2.3020     1.1250 c3         1 EEC      -0.210400
     31 C5          -6.5060    -2.8920     2.0670 c          1 EEC       0.717000
     32 O8          -7.6920    -2.5540     1.8880 o          1 EEC      -0.745000
     33 O8E         -6.0820    -3.6770     2.9400 o          1 EEC      -0.745000
     34 N9          -6.0240    -0.6620    -3.0090 nt         1 EEC      -0.614000
     35 H16          1.5580    -0.8320    -1.3650 hc         1 EEC       0.064200
     36 H17          2.0010     0.7090    -0.6580 hc         1 EEC       0.064200
     37 H18          2.4440    -0.4280     1.5420 hc         1 EEC       0.081700
     38 H19          1.9970    -1.9700     0.8340 hc         1 EEC       0.081700
     39 H20          5.1450     0.0720     1.3990 ha         1 EEC       0.153000
     40 H21          7.3330     0.7720     0.9700 ha         1 EEC       0.126000
     41 H22          9.7580     1.1350     0.9840 ha         1 EEC       0.109000
     42 H23         11.2560    -0.4040    -0.2460 ha         1 EEC       0.105000
     43 H24         10.2960    -2.3180    -1.4910 ha         1 EEC       0.109000
     44 H25          7.8680    -2.6930    -1.5020 ha         1 EEC       0.126000
     45 H3           0.0210     1.6830    -0.8640 hn         1 EEC       0.322500
     46 H9          -2.0490     1.0960     1.0500 h1         1 EEC       0.069700
     47 H10         -2.0800     2.8160    -1.4660 hc         1 EEC       0.068700
     48 H11         -3.3450     2.7620    -0.2620 hc         1 EEC       0.068700
     49 H12         -1.7110     3.5190     1.4940 hc         1 EEC       0.014700
     50 H13         -0.4640     3.6510     0.2880 hc         1 EEC       0.014700
     51 H1          -4.0790     0.2690     0.7030 hn         1 EEC       0.330500
     52 H2          -4.4430    -1.7420    -1.3530 h1         1 EEC       0.063700
     53 H4          -6.4010    -0.4380     0.5840 hc         1 EEC       0.052200
     54 H5          -6.7720    -1.7780    -0.4750 hc         1 EEC       0.052200
     55 H6          -4.9420    -3.1310     0.6080 hc         1 EEC       0.026200
     56 H7          -4.6610    -1.8420     1.7410 hc         1 EEC       0.026200
     57 H14         -5.9370    -1.6610    -3.0820 hn         1 EEC       0.300000
     58 H15         -6.5130    -0.1860    -3.7490 hn         1 EEC       0.300000
@<TRIPOS>BOND
     1     1     4 2   
     2     2     3 1   
     3     2     8 2   
     4     3    15 1   
     5     4     5 1   
     6     4    16 1   
     7     5     6 1   
     8     5    35 1   
     9     5    36 1   
    10     6    15 1   
    11     6    37 1   
    12     6    38 1   
    13     7     8 1   
    14     7    15 2   
    15     7    39 1   
    16     8     9 1   
    17     9    10 ar  
    18     9    14 ar  
    19    10    11 ar  
    20    10    40 1   
    21    11    12 ar  
    22    11    41 1   
    23    12    13 ar  
    24    12    42 1   
    25    13    14 ar  
    26    13    43 1   
    27    14    44 1   
    28    16    17 1   
    29    16    45 1   
    30    17    18 1   
    31    17    20 1   
    32    17    46 1   
    33    18    19 2   
    34    18    25 1   
    35    20    21 1   
    36    20    47 1   
    37    20    48 1   
    38    21    22 1   
    39    21    49 1   
    40    21    50 1   
    41    22    23 1   
    42    22    24 1   
    43    25    26 1   
    44    25    51 1   
    45    26    27 1   
    46    26    29 1   
    47    26    52 1   
    48    27    28 2   
    49    27    34 1   
    50    29    30 1   
    51    29    53 1   
    52    29    54 1   
    53    30    31 1   
    54    30    55 1   
    55    30    56 1   
    56    31    32 1   
    57    31    33 1   
    58    34    57 1   
    59    34    58 1   
@<TRIPOS>SUBSTRUCTURE
     1 EEC         1 TEMP              0 ****  ****    0 ROOT
