@<TRIPOS>MOLECULE
EEC
   58    59     1     0     0
SMALL
No Charge or Current Charge


@<TRIPOS>ATOM
      1 O2          -0.2900    -0.1080     2.6670 o          1 EEC      -0.612100
      2 N3           5.9250    -1.5150     1.6570 nc         1 EEC      -0.377300
      3 O5           4.6110    -1.1900     2.1580 os         1 EEC      -0.062700
      4 C11          0.1500    -0.2090     1.5300 c          1 EEC       0.592100
      5 C12          1.5440    -0.7740     1.2380 c3         1 EEC      -0.158400
      6 C13          2.6570     0.2430     1.5930 c3         1 EEC      -0.113700
      7 C14          4.9140    -0.0030     0.3120 cd         1 EEC      -0.256000
      8 C16          6.0610    -0.7850     0.5590 cd         1 EEC       0.323500
      9 C21          7.2930    -0.8340    -0.2640 ca         1 EEC      -0.123500
     10 C22          7.4540     0.0240    -1.3760 ca         1 EEC      -0.081500
     11 C23          8.6260    -0.0170    -2.1520 ca         1 EEC      -0.121000
     12 C24          9.6570    -0.9130    -1.8270 ca         1 EEC      -0.108000
     13 C25          9.5140    -1.7670    -0.7240 ca         1 EEC      -0.121000
     14 C26          8.3440    -1.7280     0.0540 ca         1 EEC      -0.081500
     15 C27          4.0390    -0.2750     1.3120 cc         1 EEC       0.202300
     16 N2          -0.5810     0.1400     0.4160 ns         1 EEC      -0.466900
     17 C7          -1.9380     0.7330     0.4310 c3         1 EEC       0.025700
     18 C6          -2.8030     0.1140    -0.7070 c          1 EEC       0.599100
     19 O1          -2.3240    -0.5180    -1.6430 o          1 EEC      -0.641100
     20 C8          -1.8790     2.2820     0.3120 c3         1 EEC      -0.069400
     21 C9          -1.1080     2.9960     1.4560 c3         1 EEC      -0.208400
     22 C10         -1.2190     4.5230     1.2980 c          1 EEC       0.716000
     23 O4E         -2.1690     5.0880     1.8170 o          1 EEC      -0.740500
     24 O4          -0.3840     5.0940     0.6120 o          1 EEC      -0.740500
     25 N1          -4.1610     0.3330    -0.5890 ns         1 EEC      -0.463900
     26 C2          -5.1950    -0.1620    -1.5270 c3         1 EEC       0.028700
     27 C1          -6.2530     0.9520    -1.7960 c          1 EEC       0.588100
     28 O9          -6.2680     2.0280    -1.2180 o          1 EEC      -0.598100
     29 C3          -5.8510    -1.4810    -1.0250 c3         1 EEC      -0.062400
     30 C4          -4.8630    -2.6560    -0.7970 c3         1 EEC      -0.210400
     31 C5          -5.6330    -3.9340    -0.4240 c          1 EEC       0.717000
     32 O8          -6.0200    -4.6590    -1.3280 o          1 EEC      -0.745000
     33 O8E         -5.8740    -4.1380     0.7560 o          1 EEC      -0.745000
     34 N9          -7.2010     0.6780    -2.7230 nt         1 EEC      -0.614000
     35 H16          1.6900    -1.6760     1.8450 hc         1 EEC       0.064200
     36 H17          1.6330    -1.0260     0.1740 hc         1 EEC       0.064200
     37 H18          2.4950     1.1700     1.0280 hc         1 EEC       0.081700
     38 H19          2.5810     0.5110     2.6540 hc         1 EEC       0.081700
     39 H20          4.7460     0.6800    -0.5100 ha         1 EEC       0.153000
     40 H21          6.6760     0.7320    -1.6500 ha         1 EEC       0.126000
     41 H22          8.7350     0.6480    -3.0050 ha         1 EEC       0.109000
     42 H23         10.5630    -0.9430    -2.4280 ha         1 EEC       0.105000
     43 H24         10.3120    -2.4620    -0.4690 ha         1 EEC       0.109000
     44 H25          8.2600    -2.4020     0.9040 ha         1 EEC       0.126000
     45 H3          -0.1480    -0.0320    -0.4850 hn         1 EEC       0.322500
     46 H9          -2.4290     0.4700     1.3760 h1         1 EEC       0.069700
     47 H10         -1.4240     2.5510    -0.6500 hc         1 EEC       0.068700
     48 H11         -2.9030     2.6750     0.2880 hc         1 EEC       0.068700
     49 H12         -1.5870     2.6720     2.3880 hc         1 EEC       0.014700
     50 H13         -0.0610     2.6830     1.3640 hc         1 EEC       0.014700
     51 H1          -4.4650     0.8950     0.1980 hn         1 EEC       0.330500
     52 H2          -4.7200    -0.3660    -2.4960 h1         1 EEC       0.063700
     53 H4          -6.3890    -1.2790    -0.0910 hc         1 EEC       0.052200
     54 H5          -6.6050    -1.8040    -1.7540 hc         1 EEC       0.052200
     55 H6          -4.3360    -2.7950    -1.7490 hc         1 EEC       0.026200
     56 H7          -4.2100    -2.3550     0.0310 hc         1 EEC       0.026200
     57 H14         -7.1970    -0.2060    -3.2090 hn         1 EEC       0.300000
     58 H15         -7.9070     1.3710    -2.9250 hn         1 EEC       0.300000
@<TRIPOS>BOND
     1     1     4 2   
     2     2     3 1   
     3     2     8 2   
     4     3    15 1   
     5     4     5 1   
     6     4    16 1   
     7     5     6 1   
     8     5    35 1   
     9     5    36 1   
    10     6    15 1   
    11     6    37 1   
    12     6    38 1   
    13     7     8 1   
    14     7    15 2   
    15     7    39 1   
    16     8     9 1   
    17     9    10 ar  
    18     9    14 ar  
    19    10    11 ar  
    20    10    40 1   
    21    11    12 ar  
    22    11    41 1   
    23    12    13 ar  
    24    12    42 1   
    25    13    14 ar  
    26    13    43 1   
    27    14    44 1   
    28    16    17 1   
    29    16    45 1   
    30    17    18 1   
    31    17    20 1   
    32    17    46 1   
    33    18    19 2   
    34    18    25 1   
    35    20    21 1   
    36    20    47 1   
    37    20    48 1   
    38    21    22 1   
    39    21    49 1   
    40    21    50 1   
    41    22    23 1   
    42    22    24 1   
    43    25    26 1   
    44    25    51 1   
    45    26    27 1   
    46    26    29 1   
    47    26    52 1   
    48    27    28 2   
    49    27    34 1   
    50    29    30 1   
    51    29    53 1   
    52    29    54 1   
    53    30    31 1   
    54    30    55 1   
    55    30    56 1   
    56    31    32 1   
    57    31    33 1   
    58    34    57 1   
    59    34    58 1   
@<TRIPOS>SUBSTRUCTURE
     1 EEC         1 TEMP              0 ****  ****    0 ROOT
