@<TRIPOS>MOLECULE
EED
   51    54     1     0     0
SMALL
No Charge or Current Charge


@<TRIPOS>ATOM
      1 C9          -0.3700     0.2960     0.7390 c6         1 EED      -0.004400
      2 C10         -1.9070     0.3360     0.5210 ca         1 EED      -0.104300
      3 C1          -2.7460    -0.6190     1.1420 ca         1 EED      -0.071000
      4 C2          -4.1380    -0.5810     0.9640 ca         1 EED      -0.206000
      5 C3          -4.7160     0.4230     0.1790 ca         1 EED       0.137100
      6 O3          -6.0660     0.4630     0.0040 oh         1 EED      -0.535100
      7 C4          -3.9060     1.3970    -0.4160 ca         1 EED      -0.149000
      8 C5          -2.5090     1.3730    -0.2420 ca         1 EED      -0.035300
      9 C6          -1.6810     2.4840    -0.8960 c6         1 EED      -0.034100
     10 C7          -0.2580     2.6120    -0.3180 c6         1 EED      -0.070400
     11 C8           0.4110     1.2220    -0.2590 c6         1 EED      -0.044700
     12 C14          1.8980     1.2950     0.1900 c5         1 EED      -0.068700
     13 C15          2.9010     2.1700    -0.6120 c5         1 EED      -0.064400
     14 C16          4.2880     1.6820    -0.0600 c5         1 EED      -0.116400
     15 C17          3.9670     0.4050     0.7980 c5         1 EED       0.170300
     16 O17          5.0120    -0.5670     0.7400 oh         1 EED      -0.648000
     17 C13          2.6110    -0.0920     0.1850 c5         1 EED      -0.036000
     18 C18          2.8180    -0.7530    -1.2290 c3         1 EED      -0.070100
     19 C12          1.8090    -1.0630     1.1100 c6         1 EED      -0.052400
     20 C11          0.2690    -1.1450     0.7950 c6         1 EED      -0.047700
     21 C19         -0.1230    -2.0270    -0.4360 c3         1 EED       0.159600
     22 O20          0.5480    -3.2980    -0.3670 os         1 EED      -0.457000
     23 C21          0.2730    -4.1760    -1.4700 c3         1 EED       0.147900
     24 H9          -0.2240     0.7250     1.7410 hc         1 EED       0.053700
     25 H1          -2.3300    -1.4000     1.7720 ha         1 EED       0.113000
     26 H2          -4.7600    -1.3330     1.4450 ha         1 EED       0.113000
     27 HO3         -6.4630    -0.2890     0.4940 ho         1 EED       0.463000
     28 H4          -4.3660     2.1810    -1.0110 ha         1 EED       0.125000
     29 H61         -1.6170     2.2870    -1.9750 hc         1 EED       0.050700
     30 H62         -2.1990     3.4470    -0.7930 hc         1 EED       0.050700
     31 H71          0.3250     3.2990    -0.9460 hc         1 EED       0.044700
     32 H72         -0.2980     3.0560     0.6860 hc         1 EED       0.044700
     33 H8           0.3610     0.7930    -1.2680 hc         1 EED       0.055700
     34 H14          1.8410     1.6930     1.2130 hc         1 EED       0.042700
     35 H151         2.8130     2.0070    -1.6930 hc         1 EED       0.044200
     36 H152         2.7460     3.2410    -0.4380 hc         1 EED       0.044200
     37 H161         4.9780     1.4650    -0.8840 hc         1 EED       0.046200
     38 H162         4.7700     2.4510     0.5550 hc         1 EED       0.046200
     39 H17          3.8130     0.7030     1.8460 h1         1 EED       0.025700
     40 HO17         5.8160    -0.1360     1.1020 ho         1 EED       0.440000
     41 H181         3.6420    -0.2980    -1.7890 hc         1 EED       0.036033
     42 H182         3.0640    -1.8170    -1.1370 hc         1 EED       0.036033
     43 H183         1.9420    -0.6690    -1.8740 hc         1 EED       0.036033
     44 H121         2.2660    -2.0620     1.1030 hc         1 EED       0.051700
     45 H122         1.9160    -0.7170     2.1470 hc         1 EED       0.051700
     46 H11         -0.1680    -1.6730     1.6520 hc         1 EED       0.050700
     47 H191        -1.2100    -2.1810    -0.4280 h1         1 EED       0.026200
     48 H192         0.1140    -1.5090    -1.3710 h1         1 EED       0.026200
     49 H211        -0.8000    -4.4000    -1.5310 h1         1 EED       0.026367
     50 H212         0.5880    -3.7200    -2.4180 h1         1 EED       0.026367
     51 H213         0.8140    -5.1220    -1.3480 h1         1 EED       0.026367
@<TRIPOS>BOND
     1     1     2 1   
     2     1    11 1   
     3     1    20 1   
     4     1    24 1   
     5     2     3 ar  
     6     2     8 ar  
     7     3     4 ar  
     8     3    25 1   
     9     4     5 ar  
    10     4    26 1   
    11     5     6 1   
    12     5     7 ar  
    13     6    27 1   
    14     7     8 ar  
    15     7    28 1   
    16     8     9 1   
    17     9    10 1   
    18     9    29 1   
    19     9    30 1   
    20    10    11 1   
    21    10    31 1   
    22    10    32 1   
    23    11    12 1   
    24    11    33 1   
    25    12    13 1   
    26    12    17 1   
    27    12    34 1   
    28    13    14 1   
    29    13    35 1   
    30    13    36 1   
    31    14    15 1   
    32    14    37 1   
    33    14    38 1   
    34    15    16 1   
    35    15    17 1   
    36    15    39 1   
    37    16    40 1   
    38    17    18 1   
    39    17    19 1   
    40    18    41 1   
    41    18    42 1   
    42    18    43 1   
    43    19    20 1   
    44    19    44 1   
    45    19    45 1   
    46    20    21 1   
    47    20    46 1   
    48    21    22 1   
    49    21    47 1   
    50    21    48 1   
    51    22    23 1   
    52    23    49 1   
    53    23    50 1   
    54    23    51 1   
@<TRIPOS>SUBSTRUCTURE
     1 EED         1 TEMP              0 ****  ****    0 ROOT
