@<TRIPOS>MOLECULE
EED
   51    54     1     0     0
SMALL
abcg2


@<TRIPOS>ATOM
      1 C9          -0.3330     0.2900     0.6930 c6         1 EED      -0.004400
      2 C10         -1.8380     0.3210     0.4900 ca         1 EED      -0.104300
      3 C1          -2.6600    -0.5940     1.1480 ca         1 EED      -0.071000
      4 C2          -4.0390    -0.5760     1.0260 ca         1 EED      -0.206000
      5 C3          -4.6420     0.3930     0.2290 ca         1 EED       0.137100
      6 O3          -5.9800     0.4730     0.0600 oh         1 EED      -0.535100
      7 C4          -3.8440     1.3290    -0.4140 ca         1 EED      -0.149000
      8 C5          -2.4560     1.3050    -0.2890 ca         1 EED      -0.035300
      9 C6          -1.6500     2.3600    -1.0010 c6         1 EED      -0.034100
     10 C7          -0.2720     2.5460    -0.3890 c6         1 EED      -0.070400
     11 C8           0.4270     1.1990    -0.2900 c6         1 EED      -0.044700
     12 C14          1.8640     1.2840     0.1900 c5         1 EED      -0.068700
     13 C15          2.8710     2.2060    -0.4980 c5         1 EED      -0.064400
     14 C16          4.2350     1.6730     0.0050 c5         1 EED      -0.116400
     15 C17          3.9220     0.3610     0.7680 c5         1 EED       0.170300
     16 O17          4.8990    -0.6440     0.6460 oh         1 EED      -0.648000
     17 C13          2.5710    -0.0780     0.1950 c5         1 EED      -0.036000
     18 C18          2.7900    -0.6370    -1.2190 c3         1 EED      -0.070100
     19 C12          1.7840    -1.0430     1.0780 c6         1 EED      -0.052400
     20 C11          0.2770    -1.1280     0.7640 c6         1 EED      -0.047700
     21 C19         -0.0920    -1.9770    -0.4500 c3         1 EED       0.159600
     22 O20          0.5300    -3.2350    -0.3480 os         1 EED      -0.457000
     23 C21          0.2060    -4.0820    -1.4170 c3         1 EED       0.147900
     24 H9          -0.1530     0.7230     1.6880 hc         1 EED       0.053700
     25 H1          -2.2200    -1.3530     1.7840 ha         1 EED       0.113000
     26 H2          -4.6390    -1.3100     1.5520 ha         1 EED       0.113000
     27 HO3         -6.4180    -0.2380     0.5410 ho         1 EED       0.463000
     28 H4          -4.3120     2.1000    -1.0170 ha         1 EED       0.125000
     29 H61         -1.5350     2.0720    -2.0530 hc         1 EED       0.050700
     30 H62         -2.2060     3.3010    -1.0080 hc         1 EED       0.050700
     31 H71          0.3100     3.2380    -1.0020 hc         1 EED       0.044700
     32 H72         -0.3550     2.9970     0.6060 hc         1 EED       0.044700
     33 H8           0.4080     0.7570    -1.2940 hc         1 EED       0.055700
     34 H14          1.8140     1.6130     1.2400 hc         1 EED       0.042700
     35 H151         2.7930     2.1310    -1.5850 hc         1 EED       0.044200
     36 H152         2.7150     3.2540    -0.2410 hc         1 EED       0.044200
     37 H161         4.9150     1.4700    -0.8250 hc         1 EED       0.046200
     38 H162         4.7380     2.3930     0.6520 hc         1 EED       0.046200
     39 H17          3.7680     0.6040     1.8300 h1         1 EED       0.025700
     40 HO17         5.7120    -0.3230     1.0470 ho         1 EED       0.440000
     41 H181         3.5780    -0.1110    -1.7580 hc         1 EED       0.036033
     42 H182         3.0750    -1.6880    -1.1770 hc         1 EED       0.036033
     43 H183         1.8980    -0.5700    -1.8370 hc         1 EED       0.036033
     44 H121         2.2260    -2.0420     1.0580 hc         1 EED       0.051700
     45 H122         1.8710    -0.6950     2.1140 hc         1 EED       0.051700
     46 H11         -0.1670    -1.6340     1.6280 hc         1 EED       0.050700
     47 H191        -1.1830    -2.1020    -0.4830 h1         1 EED       0.026200
     48 H192         0.1840    -1.4920    -1.3950 h1         1 EED       0.026200
     49 H211        -0.8730    -4.2720    -1.4830 h1         1 EED       0.026367
     50 H212         0.5320    -3.6740    -2.3820 h1         1 EED       0.026367
     51 H213         0.7120    -5.0350    -1.2600 h1         1 EED       0.026367
@<TRIPOS>BOND
     1     1     2 1   
     2     1    11 1   
     3     1    20 1   
     4     1    24 1   
     5     2     3 ar  
     6     2     8 ar  
     7     3     4 ar  
     8     3    25 1   
     9     4     5 ar  
    10     4    26 1   
    11     5     6 1   
    12     5     7 ar  
    13     6    27 1   
    14     7     8 ar  
    15     7    28 1   
    16     8     9 1   
    17     9    10 1   
    18     9    29 1   
    19     9    30 1   
    20    10    11 1   
    21    10    31 1   
    22    10    32 1   
    23    11    12 1   
    24    11    33 1   
    25    12    13 1   
    26    12    17 1   
    27    12    34 1   
    28    13    14 1   
    29    13    35 1   
    30    13    36 1   
    31    14    15 1   
    32    14    37 1   
    33    14    38 1   
    34    15    16 1   
    35    15    17 1   
    36    15    39 1   
    37    16    40 1   
    38    17    18 1   
    39    17    19 1   
    40    18    41 1   
    41    18    42 1   
    42    18    43 1   
    43    19    20 1   
    44    19    44 1   
    45    19    45 1   
    46    20    21 1   
    47    20    46 1   
    48    21    22 1   
    49    21    47 1   
    50    21    48 1   
    51    22    23 1   
    52    23    49 1   
    53    23    50 1   
    54    23    51 1   
@<TRIPOS>SUBSTRUCTURE
     1 EED         1 TEMP              0 ****  ****    0 ROOT
