@<TRIPOS>MOLECULE
EEE
   14    13     1     0     0
SMALL
No Charge or Current Charge


@<TRIPOS>ATOM
      1 C1          -1.0120     0.2020    -0.0140 c          1 EEE       0.594100
      2 C2          -2.1160    -0.8460    -0.0440 c3         1 EEE      -0.157100
      3 O1          -1.2200     1.4070     0.0000 o          1 EEE      -0.491000
      4 O2           0.2300    -0.3750    -0.0040 os         1 EEE      -0.455100
      5 C3           1.3770     0.4920     0.0250 c3         1 EEE       0.166600
      6 C4           2.6290    -0.3990     0.0310 c3         1 EEE      -0.097100
      7 H21         -3.1180    -0.4030    -0.0530 hc         1 EEE       0.068700
      8 H22         -1.9540    -1.5050    -0.9040 hc         1 EEE       0.068700
      9 H23         -1.9790    -1.5290     0.8010 hc         1 EEE       0.068700
     10 H31          1.3970     1.1450    -0.8570 h1         1 EEE       0.047700
     11 H32          1.3710     1.1200     0.9260 h1         1 EEE       0.047700
     12 H41          3.5340     0.2190     0.0530 hc         1 EEE       0.046033
     13 H42          2.6360    -1.0510     0.9130 hc         1 EEE       0.046033
     14 H43          2.6620    -1.0260    -0.8690 hc         1 EEE       0.046033
@<TRIPOS>BOND
     1     1     2 1   
     2     1     3 2   
     3     1     4 1   
     4     2     7 1   
     5     2     8 1   
     6     2     9 1   
     7     4     5 1   
     8     5     6 1   
     9     5    10 1   
    10     5    11 1   
    11     6    12 1   
    12     6    13 1   
    13     6    14 1   
@<TRIPOS>SUBSTRUCTURE
     1 EEE         1 TEMP              0 ****  ****    0 ROOT
