@<TRIPOS>MOLECULE
EEE
   14    13     1     0     0
SMALL
bcc


@<TRIPOS>ATOM
      1 C1          -0.9820     0.1790    -0.0170 c          1 EEE       0.643100
      2 C2          -2.0680    -0.8560    -0.0430 c3         1 EEE      -0.157100
      3 O1          -1.1610     1.3720    -0.0230 o          1 EEE      -0.540000
      4 O2           0.2220    -0.3800     0.0090 os         1 EEE      -0.431900
      5 C3           1.3700     0.4820     0.0270 c3         1 EEE       0.143400
      6 C4           2.5990    -0.3950     0.0350 c3         1 EEE      -0.097100
      7 H21         -3.0450    -0.3820    -0.0140 hc         1 EEE       0.068700
      8 H22         -1.9940    -1.4580    -0.9490 hc         1 EEE       0.068700
      9 H23         -1.9740    -1.5340     0.8050 hc         1 EEE       0.068700
     10 H31          1.3610     1.1290    -0.8520 h1         1 EEE       0.047700
     11 H32          1.3400     1.1190     0.9130 h1         1 EEE       0.047700
     12 H41          3.4890     0.2340     0.0510 hc         1 EEE       0.046033
     13 H42          2.6280    -1.0360     0.9170 hc         1 EEE       0.046033
     14 H43          2.6510    -1.0220    -0.8550 hc         1 EEE       0.046033
@<TRIPOS>BOND
     1     1     2 1   
     2     1     3 2   
     3     1     4 1   
     4     2     7 1   
     5     2     8 1   
     6     2     9 1   
     7     4     5 1   
     8     5     6 1   
     9     5    10 1   
    10     5    11 1   
    11     6    12 1   
    12     6    13 1   
    13     6    14 1   
@<TRIPOS>SUBSTRUCTURE
     1 EEE         1 TEMP              0 ****  ****    0 ROOT
