@<TRIPOS>MOLECULE
EEF
   62    63     1     0     0
SMALL
No Charge or Current Charge


@<TRIPOS>ATOM
      1 C1           1.3940    -0.2690     0.9920 c3         1 EEF      -0.154400
      2 C2          -0.0230     0.2300     1.2880 c          1 EEF       0.590100
      3 O2          -0.4060     0.4800     2.4220 o          1 EEF      -0.614100
      4 C14          2.4250     0.8770     1.1030 c3         1 EEF      -0.031100
      5 C15          4.3480     0.4710    -0.5090 ca         1 EEF      -0.109500
      6 C16          5.6530     0.0290    -0.7880 ca         1 EEF      -0.100000
      7 C17          6.4850    -0.4960     0.2320 cp         1 EEF      -0.059000
      8 C18          3.8400     0.4030     0.8000 ca         1 EEF      -0.056300
      9 C19          7.8760    -0.9680    -0.0660 cp         1 EEF      -0.013000
     10 C20          8.4390    -2.0740     0.6220 ca         1 EEF      -0.103500
     11 C21          9.7430    -2.5180     0.3410 ca         1 EEF      -0.115000
     12 C22          9.9790    -0.7670    -1.3260 ca         1 EEF      -0.115000
     13 C23          8.6740    -0.3250    -1.0460 ca         1 EEF      -0.103500
     14 C27         10.5140    -1.8640    -0.6330 ca         1 EEF      -0.121000
     15 C30          5.9540    -0.5600     1.5460 ca         1 EEF      -0.100000
     16 C31          4.6500    -0.1170     1.8260 ca         1 EEF      -0.109500
     17 N1          -0.8420     0.3370     0.1850 ns         1 EEF      -0.469900
     18 C3          -2.2410     0.8210     0.2000 c3         1 EEF       0.028700
     19 C9          -3.1130    -0.0370    -0.7640 c          1 EEF       0.601100
     20 O1          -2.6360    -0.7740    -1.6210 o          1 EEF      -0.642100
     21 C4          -2.3210     2.3310    -0.1640 c3         1 EEF      -0.070400
     22 C5          -1.5510     3.2770     0.7970 c3         1 EEF      -0.209400
     23 C8          -1.8000     4.7460     0.4100 c          1 EEF       0.717000
     24 O7          -2.7640     5.3150     0.8990 o          1 EEF      -0.740500
     25 O6          -1.0580     5.2590    -0.4130 o          1 EEF      -0.740500
     26 N2          -4.4760     0.0950    -0.5880 ns         1 EEF      -0.464900
     27 C10         -5.5160    -0.6210    -1.3630 c3         1 EEF       0.029700
     28 C13         -6.6790     0.3520    -1.7280 c          1 EEF       0.590100
     29 O5          -6.7540     1.5030    -1.3250 o          1 EEF      -0.597100
     30 C11         -6.0270    -1.8880    -0.6170 c3         1 EEF      -0.062400
     31 C12         -4.9300    -2.9330    -0.2770 c3         1 EEF      -0.211400
     32 C32         -5.5660    -4.1880     0.3440 c          1 EEF       0.717000
     33 O34         -5.7220    -4.2160     1.5550 o          1 EEF      -0.745000
     34 O33         -5.9390    -5.0760    -0.4060 o          1 EEF      -0.745000
     35 N3          -7.6520    -0.1390    -2.5320 nt         1 EEF      -0.615000
     36 H1           1.6570    -1.0430     1.7220 hc         1 EEF       0.055700
     37 H2           1.4460    -0.6810    -0.0230 hc         1 EEF       0.055700
     38 H16          2.1420     1.6850     0.4160 hc         1 EEF       0.065200
     39 H17          2.3810     1.3080     2.1120 hc         1 EEF       0.065200
     40 H20          7.8540    -2.6030     1.3700 ha         1 EEF       0.115500
     41 H21         10.1540    -3.3700     0.8780 ha         1 EEF       0.105500
     42 H22         10.5750    -0.2570    -2.0800 ha         1 EEF       0.105500
     43 H23          8.2840     0.5350    -1.5860 ha         1 EEF       0.115500
     44 H24         11.5230    -2.2070    -0.8490 ha         1 EEF       0.103000
     45 H25          6.5630    -0.9440     2.3600 ha         1 EEF       0.107000
     46 H26          4.2700    -0.1770     2.8430 ha         1 EEF       0.120000
     47 H3          -0.4470     0.0540    -0.7040 hn         1 EEF       0.322500
     48 H5          -2.6550     0.6800     1.2070 h1         1 EEF       0.066700
     49 H8          -1.9460     2.4740    -1.1860 hc         1 EEF       0.068200
     50 H9          -1.9470     3.0740     1.8000 hc         1 EEF       0.014200
     51 H4          -4.7820     0.7530     0.1210 hn         1 EEF       0.331500
     52 H11         -5.0810    -0.9420    -2.3180 h1         1 EEF       0.060700
     53 H12         -6.5270    -1.5790     0.3100 hc         1 EEF       0.052200
     54 H13         -6.7900    -2.3800    -1.2320 hc         1 EEF       0.052200
     55 H14         -4.4480    -3.1830    -1.2290 hc         1 EEF       0.026200
     56 H15         -4.2600    -2.4530     0.4470 hc         1 EEF       0.026200
     57 H6          -7.5980    -1.0870    -2.8740 hn         1 EEF       0.299000
     58 H7          -8.4240     0.4570    -2.7910 hn         1 EEF       0.299000
     59 H28         -3.3750     2.6370    -0.1780 hc         1 EEF       0.068200
     60 H29         -0.4870     3.0330     0.6830 hc         1 EEF       0.014200
     61 H18          3.7310     0.8630    -1.3140 ha         1 EEF       0.120000
     62 H19          6.0150     0.0810    -1.8120 ha         1 EEF       0.107000
@<TRIPOS>BOND
     1     1     2 1   
     2     1     4 1   
     3     1    36 1   
     4     1    37 1   
     5     2     3 2   
     6     2    17 1   
     7     4     8 1   
     8     4    38 1   
     9     4    39 1   
    10     5     6 ar  
    11     5     8 ar  
    12     5    61 1   
    13     6     7 ar  
    14     6    62 1   
    15     7     9 1   
    16     7    15 ar  
    17     8    16 ar  
    18     9    10 ar  
    19     9    13 ar  
    20    10    11 ar  
    21    10    40 1   
    22    11    14 ar  
    23    11    41 1   
    24    12    13 ar  
    25    12    14 ar  
    26    12    42 1   
    27    13    43 1   
    28    14    44 1   
    29    15    16 ar  
    30    15    45 1   
    31    16    46 1   
    32    17    18 1   
    33    17    47 1   
    34    18    19 1   
    35    18    21 1   
    36    18    48 1   
    37    19    20 2   
    38    19    26 1   
    39    21    22 1   
    40    21    49 1   
    41    21    59 1   
    42    22    23 1   
    43    22    50 1   
    44    22    60 1   
    45    23    24 1   
    46    23    25 1   
    47    26    27 1   
    48    26    51 1   
    49    27    28 1   
    50    27    30 1   
    51    27    52 1   
    52    28    29 2   
    53    28    35 1   
    54    30    31 1   
    55    30    53 1   
    56    30    54 1   
    57    31    32 1   
    58    31    55 1   
    59    31    56 1   
    60    32    33 1   
    61    32    34 1   
    62    35    57 1   
    63    35    58 1   
@<TRIPOS>SUBSTRUCTURE
     1 EEF         1 TEMP              0 ****  ****    0 ROOT
