@<TRIPOS>MOLECULE
EEF
   62    63     1     0     0
SMALL
abcg2


@<TRIPOS>ATOM
      1 C1           1.4140    -0.0520    -0.0680 c3         1 EEF      -0.154400
      2 C2          -0.0670     0.0520     0.2180 c          1 EEF       0.590100
      3 O2          -0.6550    -0.7650     0.9150 o          1 EEF      -0.614100
      4 C14          2.2180    -0.3260     1.2060 c3         1 EEF      -0.031100
      5 C15          4.5250     0.5910     0.7630 ca         1 EEF      -0.109500
      6 C16          5.8660     0.4260     0.4560 ca         1 EEF      -0.100000
      7 C17          6.4140    -0.8460     0.2850 cp         1 EEF      -0.059000
      8 C18          3.6790    -0.5060     0.9070 ca         1 EEF      -0.056300
      9 C19          7.8470    -1.0240    -0.0250 cp         1 EEF      -0.013000
     10 C20          8.2800    -2.0660    -0.8480 ca         1 EEF      -0.103500
     11 C21          9.6270    -2.2360    -1.1340 ca         1 EEF      -0.115000
     12 C22         10.1530    -0.3210     0.2110 ca         1 EEF      -0.115000
     13 C23          8.8060    -0.1550     0.5000 ca         1 EEF      -0.103500
     14 C27         10.5700    -1.3630    -0.6060 ca         1 EEF      -0.121000
     15 C30          5.5650    -1.9450     0.4260 ca         1 EEF      -0.100000
     16 C31          4.2230    -1.7760     0.7300 ca         1 EEF      -0.109500
     17 N1          -0.7030     1.0950    -0.3370 ns         1 EEF      -0.469900
     18 C3          -2.1220     1.2800    -0.1880 c3         1 EEF       0.028700
     19 C9          -2.8810     0.1240    -0.8310 c          1 EEF       0.601100
     20 O1          -2.5080    -0.4040    -1.8670 o          1 EEF      -0.642100
     21 C4          -2.5700     2.5920    -0.8370 c3         1 EEF      -0.070400
     22 C5          -1.9640     3.8180    -0.1710 c3         1 EEF      -0.209400
     23 C8          -2.4630     5.1720    -0.7120 c          1 EEF       0.717000
     24 O7          -3.3180     5.1570    -1.6180 o          1 EEF      -0.740500
     25 O6          -1.9580     6.1840    -0.1840 o          1 EEF      -0.740500
     26 N2          -4.0130    -0.2230    -0.2030 ns         1 EEF      -0.464900
     27 C10         -4.9540    -1.1410    -0.7850 c3         1 EEF       0.029700
     28 C13         -5.5750    -0.5330    -2.0450 c          1 EEF       0.590100
     29 O5          -5.7420     0.6690    -2.1660 o          1 EEF      -0.597100
     30 C11         -6.0580    -1.4850     0.2200 c3         1 EEF      -0.062400
     31 C12         -5.5330    -2.2200     1.4430 c3         1 EEF      -0.211400
     32 C32         -6.6120    -2.6660     2.4480 c          1 EEF       0.717000
     33 O34         -7.7960    -2.3670     2.2020 o          1 EEF      -0.745000
     34 O33         -6.1980    -3.3020     3.4390 o          1 EEF      -0.745000
     35 N3          -5.9600    -1.4330    -2.9600 nt         1 EEF      -0.615000
     36 H1           1.5580    -0.8750    -0.7740 hc         1 EEF       0.055700
     37 H2           1.7860     0.8510    -0.5580 hc         1 EEF       0.055700
     38 H16          2.0810     0.5040     1.9040 hc         1 EEF       0.065200
     39 H17          1.8270    -1.2200     1.6940 hc         1 EEF       0.065200
     40 H20          7.5590    -2.7440    -1.2870 ha         1 EEF       0.115500
     41 H21          9.9390    -3.0490    -1.7770 ha         1 EEF       0.105500
     42 H22         10.8780     0.3630     0.6330 ha         1 EEF       0.105500
     43 H23          8.5030     0.6520     1.1550 ha         1 EEF       0.115500
     44 H24         11.6210    -1.4940    -0.8310 ha         1 EEF       0.103000
     45 H25          5.9570    -2.9490     0.3220 ha         1 EEF       0.107000
     46 H26          3.5920    -2.6490     0.8430 ha         1 EEF       0.120000
     47 H3          -0.1910     1.7200    -0.9390 hn         1 EEF       0.322500
     48 H5          -2.3670     1.3210     0.8790 h1         1 EEF       0.066700
     49 H8          -2.3240     2.5680    -1.9020 hc         1 EEF       0.068200
     50 H9          -2.1620     3.7820     0.9060 hc         1 EEF       0.014200
     51 H4          -4.2940     0.2940     0.6160 hn         1 EEF       0.331500
     52 H11         -4.4310    -2.0640    -1.0550 h1         1 EEF       0.060700
     53 H12         -6.5740    -0.5660     0.5130 hc         1 EEF       0.052200
     54 H13         -6.7980    -2.1040    -0.2890 hc         1 EEF       0.052200
     55 H14         -4.9710    -3.1050     1.1240 hc         1 EEF       0.026200
     56 H15         -4.8080    -1.6020     1.9830 hc         1 EEF       0.026200
     57 H6          -5.7760    -2.4160    -2.8520 hn         1 EEF       0.299000
     58 H7          -6.4460    -1.1450    -3.7930 hn         1 EEF       0.299000
     59 H28         -3.6580     2.6420    -0.7780 hc         1 EEF       0.068200
     60 H29         -0.8730     3.8080    -0.2580 hc         1 EEF       0.014200
     61 H18          4.1310     1.5930     0.8910 ha         1 EEF       0.120000
     62 H19          6.4890     1.3040     0.3360 ha         1 EEF       0.107000
@<TRIPOS>BOND
     1     1     2 1   
     2     1     4 1   
     3     1    36 1   
     4     1    37 1   
     5     2     3 2   
     6     2    17 1   
     7     4     8 1   
     8     4    38 1   
     9     4    39 1   
    10     5     6 ar  
    11     5     8 ar  
    12     5    61 1   
    13     6     7 ar  
    14     6    62 1   
    15     7     9 1   
    16     7    15 ar  
    17     8    16 ar  
    18     9    10 ar  
    19     9    13 ar  
    20    10    11 ar  
    21    10    40 1   
    22    11    14 ar  
    23    11    41 1   
    24    12    13 ar  
    25    12    14 ar  
    26    12    42 1   
    27    13    43 1   
    28    14    44 1   
    29    15    16 ar  
    30    15    45 1   
    31    16    46 1   
    32    17    18 1   
    33    17    47 1   
    34    18    19 1   
    35    18    21 1   
    36    18    48 1   
    37    19    20 2   
    38    19    26 1   
    39    21    22 1   
    40    21    49 1   
    41    21    59 1   
    42    22    23 1   
    43    22    50 1   
    44    22    60 1   
    45    23    24 1   
    46    23    25 1   
    47    26    27 1   
    48    26    51 1   
    49    27    28 1   
    50    27    30 1   
    51    27    52 1   
    52    28    29 2   
    53    28    35 1   
    54    30    31 1   
    55    30    53 1   
    56    30    54 1   
    57    31    32 1   
    58    31    55 1   
    59    31    56 1   
    60    32    33 1   
    61    32    34 1   
    62    35    57 1   
    63    35    58 1   
@<TRIPOS>SUBSTRUCTURE
     1 EEF         1 TEMP              0 ****  ****    0 ROOT
