@<TRIPOS>MOLECULE
EEG
   69    71     1     0     0
SMALL
abcg2


@<TRIPOS>ATOM
      1 O2          -2.4130     0.8360    -0.8980 o          1 EEG      -0.613100
      2 S7           6.4960     2.1620     1.8260 ss         1 EEG       0.217000
      3 C11         -1.8400    -0.0620    -0.2950 c          1 EEG       0.591100
      4 C12         -0.3750     0.0200     0.0740 c3         1 EEG      -0.155400
      5 C13          0.4700     0.6170    -1.0520 c3         1 EEG      -0.030100
      6 C14          2.7790    -0.3390    -0.7380 ca         1 EEG      -0.107500
      7 C15          3.7290     2.0500     0.2740 ca         1 EEG      -0.097500
      8 C16          4.5980     0.9610     0.1820 ca         1 EEG      -0.037000
      9 C17          4.0980    -0.2390    -0.3290 ca         1 EEG      -0.097500
     10 C18          5.9960     1.0570     0.5970 cc         1 EEG      -0.130000
     11 C19          7.0680     0.3510     0.1280 cd         1 EEG      -0.130000
     12 C20          8.3020     0.7010     0.7510 cd         1 EEG      -0.058000
     13 C21          9.5960     0.0880     0.4190 ca         1 EEG      -0.001000
     14 C22         10.7900     0.7940     0.5830 ca         1 EEG      -0.101500
     15 C23         12.0090     0.2070     0.2850 ca         1 EEG      -0.113000
     16 C24         12.0610    -1.0970    -0.1920 ca         1 EEG      -0.117000
     17 C25         10.8810    -1.8070    -0.3670 ca         1 EEG      -0.113000
     18 C26          9.6610    -1.2220    -0.0620 ca         1 EEG      -0.101500
     19 C27          1.9100     0.7460    -0.6450 ca         1 EEG      -0.053300
     20 C28          2.4080     1.9390    -0.1290 ca         1 EEG      -0.107500
     21 C29          8.1290     1.6780     1.6920 cc         1 EEG      -0.253000
     22 N2          -2.4780    -1.1780     0.0900 ns         1 EEG      -0.468900
     23 C7          -3.8960    -1.3420    -0.0960 c3         1 EEG       0.027700
     24 C6          -4.6610    -0.2920     0.7050 c          1 EEG       0.599100
     25 O1          -4.2890     0.0830     1.8050 o          1 EEG      -0.641100
     26 C8          -4.3400    -2.7340     0.3590 c3         1 EEG      -0.070400
     27 C9          -3.7280    -3.8540    -0.4680 c3         1 EEG      -0.208400
     28 C10         -4.2110    -5.2710    -0.1050 c          1 EEG       0.717000
     29 O4E         -5.1020    -5.3770     0.7590 o          1 EEG      -0.741000
     30 O4          -3.6620    -6.2050    -0.7260 o          1 EEG      -0.741000
     31 N1          -5.7940     0.1400     0.1310 ns         1 EEG      -0.463900
     32 C2          -6.7470     0.9400     0.8500 c3         1 EEG       0.027700
     33 C1          -7.3780     0.1230     1.9810 c          1 EEG       0.588100
     34 O9          -7.5030    -1.0880     1.9100 o          1 EEG      -0.598100
     35 C3          -7.8360     1.4550    -0.0950 c3         1 EEG      -0.061400
     36 C4          -7.2930     2.4110    -1.1460 c3         1 EEG      -0.210400
     37 C5          -8.3560     3.0770    -2.0380 c          1 EEG       0.717000
     38 O8E         -9.5490     2.7710    -1.8490 o          1 EEG      -0.746000
     39 O8          -7.9220     3.8800    -2.8890 o          1 EEG      -0.746000
     40 N9          -7.8120     0.8560     3.0150 nt         1 EEG      -0.614000
     41 H12         -0.2980     0.6540     0.9630 hc         1 EEG       0.056200
     42 H12A         0.0130    -0.9610     0.3580 hc         1 EEG       0.056200
     43 H13          0.3950    -0.0190    -1.9380 hc         1 EEG       0.065700
     44 H13A         0.0710     1.5950    -1.3250 hc         1 EEG       0.065700
     45 H14          2.4180    -1.2830    -1.1310 ha         1 EEG       0.121500
     46 H15          4.0860     3.0040     0.6440 ha         1 EEG       0.109000
     47 H17          4.7420    -1.1070    -0.3940 ha         1 EEG       0.109000
     48 H19          6.9860    -0.3710    -0.6720 ha         1 EEG       0.137000
     49 H22         10.7640     1.8190     0.9320 ha         1 EEG       0.115000
     50 H23         12.9220     0.7730     0.4190 ha         1 EEG       0.107500
     51 H24         13.0130    -1.5540    -0.4280 ha         1 EEG       0.106000
     52 H25         10.9090    -2.8240    -0.7360 ha         1 EEG       0.107500
     53 H26          8.7520    -1.7980    -0.1860 ha         1 EEG       0.115000
     54 H28          1.7560     2.8010    -0.0520 ha         1 EEG       0.121500
     55 H29          8.8740     2.1220     2.3350 h4         1 EEG       0.145000
     56 HN2         -1.9810    -1.8630     0.6360 hn         1 EEG       0.321500
     57 H7          -4.1340    -1.2290    -1.1590 h1         1 EEG       0.068700
     58 H8          -4.0950    -2.8580     1.4170 hc         1 EEG       0.068200
     59 H8A         -5.4290    -2.7800     0.2940 hc         1 EEG       0.068200
     60 H9          -3.9410    -3.6830    -1.5300 hc         1 EEG       0.014700
     61 H9A         -2.6360    -3.8400    -0.3920 hc         1 EEG       0.014700
     62 HN1         -6.0770    -0.2630    -0.7490 hn         1 EEG       0.330500
     63 H2          -6.2300     1.8030     1.2810 h1         1 EEG       0.063700
     64 H3          -8.3390     0.6050    -0.5640 hc         1 EEG       0.051700
     65 H3A         -8.5930     1.9650     0.5040 hc         1 EEG       0.051700
     66 H4          -6.7140     3.2000    -0.6520 hc         1 EEG       0.026700
     67 H4A         -6.5770     1.9020    -1.8000 hc         1 EEG       0.026700
     68 HN9         -7.6770     1.8510     3.0560 hn         1 EEG       0.299500
     69 HN9A        -8.3100     0.4250     3.7770 hn         1 EEG       0.299500
@<TRIPOS>BOND
     1     1     3 2   
     2     2    10 1   
     3     2    21 1   
     4     3     4 1   
     5     3    22 1   
     6     4     5 1   
     7     4    41 1   
     8     4    42 1   
     9     5    19 1   
    10     5    43 1   
    11     5    44 1   
    12     6     9 ar  
    13     6    19 ar  
    14     6    45 1   
    15     7     8 ar  
    16     7    20 ar  
    17     7    46 1   
    18     8     9 ar  
    19     8    10 1   
    20     9    47 1   
    21    10    11 2   
    22    11    12 1   
    23    11    48 1   
    24    12    13 1   
    25    12    21 2   
    26    13    14 ar  
    27    13    18 ar  
    28    14    15 ar  
    29    14    49 1   
    30    15    16 ar  
    31    15    50 1   
    32    16    17 ar  
    33    16    51 1   
    34    17    18 ar  
    35    17    52 1   
    36    18    53 1   
    37    19    20 ar  
    38    20    54 1   
    39    21    55 1   
    40    22    23 1   
    41    22    56 1   
    42    23    24 1   
    43    23    26 1   
    44    23    57 1   
    45    24    25 2   
    46    24    31 1   
    47    26    27 1   
    48    26    58 1   
    49    26    59 1   
    50    27    28 1   
    51    27    60 1   
    52    27    61 1   
    53    28    29 1   
    54    28    30 1   
    55    31    32 1   
    56    31    62 1   
    57    32    33 1   
    58    32    35 1   
    59    32    63 1   
    60    33    34 2   
    61    33    40 1   
    62    35    36 1   
    63    35    64 1   
    64    35    65 1   
    65    36    37 1   
    66    36    66 1   
    67    36    67 1   
    68    37    38 1   
    69    37    39 1   
    70    40    68 1   
    71    40    69 1   
@<TRIPOS>SUBSTRUCTURE
     1 EEG         1 TEMP              0 ****  ****    0 ROOT
