@<TRIPOS>MOLECULE
EEG
   69    71     1     0     0
SMALL
No Charge or Current Charge


@<TRIPOS>ATOM
      1 O2          -2.3690     0.1360    -2.6720 o          1 EEG      -0.613100
      2 S7           6.8580     2.4880    -1.3720 ss         1 EEG       0.217000
      3 C11         -1.8730     0.1110    -1.5540 c          1 EEG       0.591100
      4 C12         -0.4280     0.5400    -1.2880 c3         1 EEG      -0.155400
      5 C13          0.5720    -0.5340    -1.7720 c3         1 EEG      -0.030100
      6 C14          2.6530    -0.5120    -0.3100 ca         1 EEG      -0.107500
      7 C15          4.0550     1.0170    -2.1960 ca         1 EEG      -0.097500
      8 C16          4.7020     0.6290    -1.0050 ca         1 EEG      -0.037000
      9 C17          3.9840    -0.1350    -0.0610 ca         1 EEG      -0.097500
     10 C18          6.0880     1.0370    -0.7580 cc         1 EEG      -0.130000
     11 C19          6.9600     0.2620    -0.0350 cd         1 EEG      -0.130000
     12 C20          8.2750     0.8200     0.0760 cd         1 EEG      -0.058000
     13 C21          9.4070     0.1900     0.8060 ca         1 EEG      -0.001000
     14 C22         10.6790     0.8100     0.8440 ca         1 EEG      -0.101500
     15 C23         11.7520     0.2180     1.5340 ca         1 EEG      -0.113000
     16 C24         11.5750    -1.0040     2.1980 ca         1 EEG      -0.117000
     17 C25         10.3220    -1.6330     2.1730 ca         1 EEG      -0.113000
     18 C26          9.2480    -1.0420     1.4840 ca         1 EEG      -0.101500
     19 C27          2.0160    -0.1300    -1.5040 ca         1 EEG      -0.053300
     20 C28          2.7240     0.6390    -2.4450 ca         1 EEG      -0.107500
     21 C29          8.3670     2.0260    -0.5920 cc         1 EEG      -0.253000
     22 N2          -2.5820    -0.2660    -0.4350 ns         1 EEG      -0.468900
     23 C7          -3.9830    -0.7480    -0.4280 c3         1 EEG       0.027700
     24 C6          -4.7450    -0.1550     0.7940 c          1 EEG       0.599100
     25 O1          -4.1770     0.3620     1.7500 o          1 EEG      -0.641100
     26 C8          -4.0460    -2.3020    -0.4300 c3         1 EEG      -0.070400
     27 C9          -3.3850    -2.9810    -1.6600 c3         1 EEG      -0.208400
     28 C10         -3.6150    -4.5030    -1.6140 c          1 EEG       0.717000
     29 O4E         -4.6290    -4.9480    -2.1290 o          1 EEG      -0.741000
     30 O4          -2.8020    -5.1900    -1.0150 o          1 EEG      -0.741000
     31 N1          -6.1200    -0.2580     0.7260 ns         1 EEG      -0.463900
     32 C2          -7.0690     0.2410     1.7490 c3         1 EEG       0.027700
     33 C1          -8.2030    -0.8040     1.9830 c          1 EEG       0.588100
     34 O9          -8.3310    -1.8270     1.3270 o          1 EEG      -0.598100
     35 C3          -7.6360     1.6430     1.3810 c3         1 EEG      -0.061400
     36 C4          -6.5650     2.7510     1.1940 c3         1 EEG      -0.210400
     37 C5          -7.2440     4.1110     0.9560 c          1 EEG       0.717000
     38 O8E         -7.5180     4.4260    -0.1910 o          1 EEG      -0.746000
     39 O8          -7.5310     4.7900     1.9300 o          1 EEG      -0.746000
     40 N9          -9.0850    -0.5320     2.9730 nt         1 EEG      -0.614000
     41 H12         -0.2290     1.4700    -1.8330 hc         1 EEG       0.056200
     42 H12A        -0.2720     0.6980    -0.2140 hc         1 EEG       0.056200
     43 H13          0.3480    -1.4860    -1.2750 hc         1 EEG       0.065700
     44 H13A         0.4240    -0.7100    -2.8450 hc         1 EEG       0.065700
     45 H14          2.1140    -1.0980     0.4320 ha         1 EEG       0.121500
     46 H15          4.5850     1.6070    -2.9400 ha         1 EEG       0.109000
     47 H17          4.4470    -0.4300     0.8770 ha         1 EEG       0.109000
     48 H19          6.6700    -0.6870     0.3970 ha         1 EEG       0.137000
     49 H22         10.8540     1.7550     0.3410 ha         1 EEG       0.115000
     50 H23         12.7230     0.7090     1.5510 ha         1 EEG       0.107500
     51 H24         12.4060    -1.4620     2.7320 ha         1 EEG       0.106000
     52 H25         10.1800    -2.5800     2.6880 ha         1 EEG       0.107500
     53 H26          8.2940    -1.5590     1.4890 ha         1 EEG       0.115000
     54 H28          2.2440     0.9470    -3.3710 ha         1 EEG       0.121500
     55 H29          9.2120     2.6910    -0.7000 h4         1 EEG       0.145000
     56 HN2         -2.0980    -0.2000     0.4540 hn         1 EEG       0.321500
     57 H7          -4.4910    -0.3730    -1.3260 h1         1 EEG       0.068700
     58 H8          -3.5740    -2.6810     0.4860 hc         1 EEG       0.068200
     59 H8A         -5.0970    -2.6140    -0.3870 hc         1 EEG       0.068200
     60 H9          -3.8740    -2.5470    -2.5410 hc         1 EEG       0.014700
     61 H9A         -2.3130    -2.7600    -1.5960 hc         1 EEG       0.014700
     62 HN1         -6.5020    -0.7300    -0.0850 hn         1 EEG       0.330500
     63 H2          -6.5390     0.3300     2.7060 h1         1 EEG       0.063700
     64 H3          -8.2280     1.5590     0.4610 hc         1 EEG       0.051700
     65 H3A         -8.3290     1.9650     2.1670 hc         1 EEG       0.051700
     66 H4          -5.9890     2.7730     2.1270 hc         1 EEG       0.026700
     67 H4A         -5.9760     2.4670     0.3140 hc         1 EEG       0.026700
     68 HN9         -8.9870     0.3080     3.5250 hn         1 EEG       0.299500
     69 HN9A        -9.8360    -1.1810     3.1570 hn         1 EEG       0.299500
@<TRIPOS>BOND
     1     1     3 2   
     2     2    10 1   
     3     2    21 1   
     4     3     4 1   
     5     3    22 1   
     6     4     5 1   
     7     4    41 1   
     8     4    42 1   
     9     5    19 1   
    10     5    43 1   
    11     5    44 1   
    12     6     9 ar  
    13     6    19 ar  
    14     6    45 1   
    15     7     8 ar  
    16     7    20 ar  
    17     7    46 1   
    18     8     9 ar  
    19     8    10 1   
    20     9    47 1   
    21    10    11 2   
    22    11    12 1   
    23    11    48 1   
    24    12    13 1   
    25    12    21 2   
    26    13    14 ar  
    27    13    18 ar  
    28    14    15 ar  
    29    14    49 1   
    30    15    16 ar  
    31    15    50 1   
    32    16    17 ar  
    33    16    51 1   
    34    17    18 ar  
    35    17    52 1   
    36    18    53 1   
    37    19    20 ar  
    38    20    54 1   
    39    21    55 1   
    40    22    23 1   
    41    22    56 1   
    42    23    24 1   
    43    23    26 1   
    44    23    57 1   
    45    24    25 2   
    46    24    31 1   
    47    26    27 1   
    48    26    58 1   
    49    26    59 1   
    50    27    28 1   
    51    27    60 1   
    52    27    61 1   
    53    28    29 1   
    54    28    30 1   
    55    31    32 1   
    56    31    62 1   
    57    32    33 1   
    58    32    35 1   
    59    32    63 1   
    60    33    34 2   
    61    33    40 1   
    62    35    36 1   
    63    35    64 1   
    64    35    65 1   
    65    36    37 1   
    66    36    66 1   
    67    36    67 1   
    68    37    38 1   
    69    37    39 1   
    70    40    68 1   
    71    40    69 1   
@<TRIPOS>SUBSTRUCTURE
     1 EEG         1 TEMP              0 ****  ****    0 ROOT
