@<TRIPOS>MOLECULE
EEH
   82    86     1     0     0
SMALL
No Charge or Current Charge


@<TRIPOS>ATOM
      1 O3           5.2590     4.4440     0.8280 o          1 EEH      -0.596100
      2 C31          5.8420     4.7460    -0.2060 c          1 EEH       0.583100
      3 N3           6.4200     5.9870    -0.3760 ns         1 EEH      -0.502900
      4 C32          6.4090     7.0470     0.6350 c3         1 EEH       0.095300
      5 C30          5.9810     3.7990    -1.4200 c3         1 EEH       0.015000
      6 N2           5.4240     2.4290    -1.2260 n          1 EEH      -0.386800
      7 C20          4.1210     2.1170    -1.8700 c6         1 EEH       0.091000
      8 C19          3.8540     0.6030    -1.9850 c6         1 EEH       0.093000
      9 C21          6.1530     1.4670    -0.4820 c          1 EEH       0.562000
     10 O2           7.2690     1.7280    -0.0470 o          1 EEH      -0.557000
     11 C22          5.4920     0.0850    -0.1910 c6         1 EEH       0.031700
     12 C23          6.4090    -1.0510    -0.7410 c3         1 EEH      -0.037100
     13 C24          5.8580    -2.4480    -0.4810 ca         1 EEH      -0.079300
     14 C29          5.0810    -3.1000    -1.4590 ca         1 EEH      -0.098500
     15 C28          4.5510    -4.3780    -1.2100 ca         1 EEH      -0.109000
     16 C27          4.7970    -5.0120     0.0200 ca         1 EEH      -0.107000
     17 C26          5.5710    -4.3680     0.9990 ca         1 EEH      -0.109000
     18 C25          6.0990    -3.0890     0.7500 ca         1 EEH      -0.098500
     19 N1           4.0830    -0.0610    -0.6790 n          1 EEH      -0.415800
     20 C18          3.0670    -0.6450     0.1200 c          1 EEH       0.618100
     21 O1           3.3110    -0.9890     1.2690 o          1 EEH      -0.581100
     22 C17          1.6730    -0.8780    -0.5010 c3         1 EEH      -0.147400
     23 C14          0.6050    -1.6130     0.3700 c6         1 EEH      -0.053700
     24 C13         -0.5600    -2.1430    -0.5100 c6         1 EEH      -0.071900
     25 C12         -1.6350    -2.8670     0.3440 c6         1 EEH      -0.090900
     26 C15          0.0510    -0.7040     1.5040 c6         1 EEH      -0.071900
     27 C16         -1.0210    -1.4430     2.3470 c6         1 EEH      -0.090900
     28 C11         -2.1950    -1.9690     1.4780 c6         1 EEH       0.120700
     29 N           -2.9720    -0.8570     0.9140 ns         1 EEH      -0.511900
     30 C10         -3.9550    -0.1500     1.5690 c          1 EEH       0.597100
     31 O           -4.2960    -0.4160     2.7130 o          1 EEH      -0.587100
     32 C9          -4.6010     0.9700     0.7510 c3         1 EEH      -0.097200
     33 C8          -5.9190     0.5570     0.1430 cc         1 EEH      -0.037600
     34 C1          -7.1960     0.6750     0.6780 cd         1 EEH      -0.040400
     35 C           -7.5000     1.2670     2.0350 c3         1 EEH      -0.032900
     36 S           -5.9350    -0.2110    -1.4700 ss         1 EEH       0.040400
     37 C7          -7.7070    -0.3270    -1.3770 ca         1 EEH      -0.148000
     38 C2          -8.2340     0.1720    -0.2050 ca         1 EEH      -0.069800
     39 C6          -8.5340    -0.8650    -2.3760 ca         1 EEH      -0.083000
     40 C5          -9.9260    -0.8880    -2.1640 ca         1 EEH      -0.101000
     41 C4         -10.4690    -0.3760    -0.9660 ca         1 EEH      -0.117000
     42 C3          -9.6220     0.1600     0.0240 ca         1 EEH      -0.070000
     43 H3           6.8810     6.1650    -1.2610 hn         1 EEH       0.314500
     44 H301         5.4830     4.2830    -2.2690 h1         1 EEH       0.067200
     45 H302         7.0470     3.7280    -1.6690 h1         1 EEH       0.067200
     46 H321         6.9380     7.9280     0.2490 h1         1 EEH       0.041700
     47 H322         5.3730     7.3220     0.8710 h1         1 EEH       0.041700
     48 H323         6.9100     6.6950     1.5460 h1         1 EEH       0.041700
     49 H201         3.3200     2.5760    -1.2730 h1         1 EEH       0.053700
     50 H202         4.0850     2.5640    -2.8730 h1         1 EEH       0.053700
     51 H191         2.8400     0.4400    -2.3700 h1         1 EEH       0.056200
     52 H192         4.5440     0.1730    -2.7260 h1         1 EEH       0.056200
     53 H22          5.5010     0.0150     0.9050 h1         1 EEH       0.120700
     54 H231         6.5610    -0.9100    -1.8180 hc         1 EEH       0.059700
     55 H232         7.4080    -0.9690    -0.2940 hc         1 EEH       0.059700
     56 H29          4.8810    -2.6130    -2.4110 ha         1 EEH       0.109000
     57 H25          6.6910    -2.5940     1.5170 ha         1 EEH       0.109000
     58 H28          3.9500    -4.8740    -1.9680 ha         1 EEH       0.110500
     59 H27          4.3860    -6.0010     0.2130 ha         1 EEH       0.111000
     60 H26          5.7600    -4.8570     1.9520 ha         1 EEH       0.110500
     61 H171         1.2980     0.0840    -0.8670 hc         1 EEH       0.056200
     62 H172         1.8460    -1.4010    -1.4490 hc         1 EEH       0.056200
     63 H14          1.1080    -2.4810     0.8210 hc         1 EEH       0.073700
     64 H131        -1.0170    -1.3130    -1.0670 hc         1 EEH       0.039950
     65 H132        -0.1700    -2.8390    -1.2650 hc         1 EEH       0.039950
     66 H151         0.8650    -0.3790     2.1650 hc         1 EEH       0.039950
     67 H152        -0.3790     0.2110     1.0750 hc         1 EEH       0.039950
     68 H121        -2.4570    -3.2080    -0.3010 hc         1 EEH       0.054950
     69 H122        -1.1980    -3.7740     0.7840 hc         1 EEH       0.054950
     70 H11         -2.8660    -2.5720     2.1070 h1         1 EEH       0.071700
     71 H161        -0.5530    -2.2870     2.8720 hc         1 EEH       0.054950
     72 H162        -1.4050    -0.7740     3.1290 hc         1 EEH       0.054950
     73 H           -2.7670    -0.5710    -0.0350 hn         1 EEH       0.308500
     74 H91C        -4.7520     1.8400     1.3990 hc         1 EEH       0.065200
     75 H92C        -3.9280     1.2520    -0.0670 hc         1 EEH       0.065200
     76 HC1         -7.8440     2.3030     1.9400 hc         1 EEH       0.045033
     77 HC2         -8.2830     0.6980     2.5490 hc         1 EEH       0.045033
     78 HC3         -6.6240     1.2640     2.6930 hc         1 EEH       0.045033
     79 H6          -8.1080    -1.2570    -3.2970 ha         1 EEH       0.120000
     80 HA         -10.0430     0.5580     0.9440 ha         1 EEH       0.116000
     81 H5         -10.5840    -1.3010    -2.9260 ha         1 EEH       0.112000
     82 H4         -11.5450    -0.3930    -0.8070 ha         1 EEH       0.112000
@<TRIPOS>BOND
     1     1     2 2   
     2     2     3 1   
     3     2     5 1   
     4     3     4 1   
     5     3    43 1   
     6     4    46 1   
     7     4    47 1   
     8     4    48 1   
     9     5     6 1   
    10     5    44 1   
    11     5    45 1   
    12     6     7 1   
    13     6     9 1   
    14     7     8 1   
    15     7    49 1   
    16     7    50 1   
    17     8    19 1   
    18     8    51 1   
    19     8    52 1   
    20     9    10 2   
    21     9    11 1   
    22    11    12 1   
    23    11    19 1   
    24    11    53 1   
    25    12    13 1   
    26    12    54 1   
    27    12    55 1   
    28    13    14 ar  
    29    13    18 ar  
    30    14    15 ar  
    31    14    56 1   
    32    15    16 ar  
    33    15    58 1   
    34    16    17 ar  
    35    16    59 1   
    36    17    18 ar  
    37    17    60 1   
    38    18    57 1   
    39    19    20 1   
    40    20    21 2   
    41    20    22 1   
    42    22    23 1   
    43    22    61 1   
    44    22    62 1   
    45    23    24 1   
    46    23    26 1   
    47    23    63 1   
    48    24    25 1   
    49    24    64 1   
    50    24    65 1   
    51    25    28 1   
    52    25    68 1   
    53    25    69 1   
    54    26    27 1   
    55    26    66 1   
    56    26    67 1   
    57    27    28 1   
    58    27    71 1   
    59    27    72 1   
    60    28    29 1   
    61    28    70 1   
    62    29    30 1   
    63    29    73 1   
    64    30    31 2   
    65    30    32 1   
    66    32    33 1   
    67    32    74 1   
    68    32    75 1   
    69    33    34 2   
    70    33    36 1   
    71    34    35 1   
    72    34    38 1   
    73    35    76 1   
    74    35    77 1   
    75    35    78 1   
    76    36    37 1   
    77    37    38 ar  
    78    37    39 ar  
    79    38    42 ar  
    80    39    40 ar  
    81    39    79 1   
    82    40    41 ar  
    83    40    81 1   
    84    41    42 ar  
    85    41    82 1   
    86    42    80 1   
@<TRIPOS>SUBSTRUCTURE
     1 EEH         1 TEMP              0 ****  ****    0 ROOT
