@<TRIPOS>MOLECULE
EEH
   82    86     1     0     0
SMALL
bcc


@<TRIPOS>ATOM
      1 O3           3.9000     4.3220     0.4150 o          1 EEH      -0.596100
      2 C31          4.9240     4.6650    -0.1550 c          1 EEH       0.650100
      3 N3           5.5420     5.8270     0.0760 ns         1 EEH      -0.569900
      4 C32          5.0370     6.8020     1.0140 c3         1 EEH       0.095300
      5 C30          5.5670     3.8020    -1.2350 c3         1 EEH       0.015000
      6 N2           5.1990     2.4170    -1.0980 n          1 EEH      -0.453800
      7 C20          4.1350     1.9080    -1.9470 c6         1 EEH       0.091000
      8 C19          4.1020     0.3970    -1.9150 c6         1 EEH       0.093000
      9 C21          5.6870     1.7580    -0.0310 c          1 EEH       0.704500
     10 O2           6.5060     2.2660     0.7230 o          1 EEH      -0.632500
     11 C22          5.2480     0.3230     0.2140 c6         1 EEH       0.031700
     12 C23          6.4390    -0.6250    -0.0650 c3         1 EEH      -0.037100
     13 C24          6.0480    -2.0610     0.1270 ca         1 EEH      -0.079300
     14 C29          5.5830    -2.8160    -0.9450 ca         1 EEH      -0.116500
     15 C28          5.1460    -4.1220    -0.7620 ca         1 EEH      -0.127000
     16 C27          5.1790    -4.6930     0.5020 ca         1 EEH      -0.125000
     17 C26          5.6550    -3.9530     1.5770 ca         1 EEH      -0.127000
     18 C25          6.0820    -2.6470     1.3890 ca         1 EEH      -0.116500
     19 N1           4.0730    -0.0440    -0.5410 n          1 EEH      -0.482800
     20 C18          3.0720    -0.7440     0.0570 c          1 EEH       0.685100
     21 O1           3.1150    -1.0140     1.2470 o          1 EEH      -0.581100
     22 C17          1.9230    -1.1960    -0.8240 c3         1 EEH      -0.147400
     23 C14          0.8340    -1.9490    -0.0700 c6         1 EEH      -0.053700
     24 C13         -0.0390    -2.7490    -1.0370 c6         1 EEH      -0.071900
     25 C12         -1.1310    -3.5190    -0.2980 c6         1 EEH      -0.090900
     26 C15         -0.0450    -1.0180     0.7650 c6         1 EEH      -0.071900
     27 C16         -1.1210    -1.7900     1.5180 c6         1 EEH      -0.090900
     28 C11         -2.0000    -2.6190     0.5790 c6         1 EEH       0.120700
     29 N           -2.8300    -1.7770    -0.2710 ns         1 EEH      -0.578900
     30 C10         -3.9250    -1.1350     0.1610 c          1 EEH       0.664100
     31 O           -4.3620    -1.2300     1.2960 o          1 EEH      -0.587100
     32 C9          -4.5760    -0.2310    -0.8810 c3         1 EEH      -0.097200
     33 C8          -6.0200     0.0010    -0.6060 cc         1 EEH      -0.037600
     34 C1          -6.5900     0.9860     0.1300 cd         1 EEH      -0.040400
     35 C           -5.8630     2.0890     0.8230 c3         1 EEH      -0.032900
     36 S           -7.1800    -1.1430    -1.2260 ss         1 EEH      -0.086500
     37 C7          -8.4910    -0.2820    -0.4930 ca         1 EEH      -0.021100
     38 C2          -8.0230     0.8450     0.2010 ca         1 EEH      -0.069800
     39 C6          -9.8440    -0.6030    -0.5470 ca         1 EEH      -0.101000
     40 C5         -10.7390     0.2230     0.1080 ca         1 EEH      -0.119000
     41 C4         -10.2930     1.3520     0.8050 ca         1 EEH      -0.135000
     42 C3          -8.9480     1.6650     0.8550 ca         1 EEH      -0.088000
     43 H3           6.4010     6.0320    -0.4060 hn         1 EEH       0.314500
     44 H301         5.2200     4.1570    -2.2080 h1         1 EEH       0.067200
     45 H302         6.6520     3.9160    -1.2300 h1         1 EEH       0.067200
     46 H321         5.7310     7.6350     1.0510 h1         1 EEH       0.041700
     47 H322         4.0590     7.1820     0.7150 h1         1 EEH       0.041700
     48 H323         4.9490     6.3840     2.0170 h1         1 EEH       0.041700
     49 H201         3.1710     2.3150    -1.6290 h1         1 EEH       0.053700
     50 H202         4.3170     2.2420    -2.9700 h1         1 EEH       0.053700
     51 H191         3.2370     0.0440    -2.4660 h1         1 EEH       0.056200
     52 H192         4.9840    -0.0090    -2.4200 h1         1 EEH       0.056200
     53 H22          5.0020     0.2570     1.2730 h1         1 EEH       0.120700
     54 H231         6.8050    -0.4690    -1.0830 hc         1 EEH       0.059700
     55 H232         7.2520    -0.3520     0.6080 hc         1 EEH       0.059700
     56 H29          5.5670    -2.3820    -1.9390 ha         1 EEH       0.127000
     57 H25          6.4450    -2.0750     2.2360 ha         1 EEH       0.127000
     58 H28          4.7860    -4.6920    -1.6090 ha         1 EEH       0.128500
     59 H27          4.8420    -5.7110     0.6500 ha         1 EEH       0.129000
     60 H26          5.6910    -4.3940     2.5660 ha         1 EEH       0.128500
     61 H171         1.4840    -0.3380    -1.3430 hc         1 EEH       0.056200
     62 H172         2.3390    -1.8370    -1.6100 hc         1 EEH       0.056200
     63 H14          1.3140    -2.6640     0.6070 hc         1 EEH       0.073700
     64 H131        -0.4760    -2.0730    -1.7830 hc         1 EEH       0.039950
     65 H132         0.5780    -3.4530    -1.6030 hc         1 EEH       0.039950
     66 H151         0.5650    -0.4560     1.4740 hc         1 EEH       0.039950
     67 H152        -0.5110    -0.2770     0.1050 hc         1 EEH       0.039950
     68 H121        -1.7580    -4.0740    -1.0000 hc         1 EEH       0.054950
     69 H122        -0.6610    -4.2620     0.3530 hc         1 EEH       0.054950
     70 H11         -2.6670    -3.2460     1.1740 h1         1 EEH       0.071700
     71 H161        -0.6460    -2.4760     2.2280 hc         1 EEH       0.054950
     72 H162        -1.7420    -1.1160     2.1090 hc         1 EEH       0.054950
     73 H           -2.5520    -1.6440    -1.2300 hn         1 EEH       0.308500
     74 H91C        -4.0400     0.7220    -0.8620 hc         1 EEH       0.065200
     75 H92C        -4.4260    -0.6310    -1.8860 hc         1 EEH       0.065200
     76 HC1         -6.2380     3.0660     0.5140 hc         1 EEH       0.045033
     77 HC2         -5.9940     2.0210     1.9050 hc         1 EEH       0.045033
     78 HC3         -4.7930     2.0670     0.6240 hc         1 EEH       0.045033
     79 H6         -10.1890    -1.4770    -1.0840 ha         1 EEH       0.138000
     80 HA          -8.6140     2.5430     1.3950 ha         1 EEH       0.134000
     81 H5         -11.7960    -0.0080     0.0810 ha         1 EEH       0.130000
     82 H4         -11.0100     1.9850     1.3100 ha         1 EEH       0.130000
@<TRIPOS>BOND
     1     1     2 2   
     2     2     3 1   
     3     2     5 1   
     4     3     4 1   
     5     3    43 1   
     6     4    46 1   
     7     4    47 1   
     8     4    48 1   
     9     5     6 1   
    10     5    44 1   
    11     5    45 1   
    12     6     7 1   
    13     6     9 1   
    14     7     8 1   
    15     7    49 1   
    16     7    50 1   
    17     8    19 1   
    18     8    51 1   
    19     8    52 1   
    20     9    10 2   
    21     9    11 1   
    22    11    12 1   
    23    11    19 1   
    24    11    53 1   
    25    12    13 1   
    26    12    54 1   
    27    12    55 1   
    28    13    14 ar  
    29    13    18 ar  
    30    14    15 ar  
    31    14    56 1   
    32    15    16 ar  
    33    15    58 1   
    34    16    17 ar  
    35    16    59 1   
    36    17    18 ar  
    37    17    60 1   
    38    18    57 1   
    39    19    20 1   
    40    20    21 2   
    41    20    22 1   
    42    22    23 1   
    43    22    61 1   
    44    22    62 1   
    45    23    24 1   
    46    23    26 1   
    47    23    63 1   
    48    24    25 1   
    49    24    64 1   
    50    24    65 1   
    51    25    28 1   
    52    25    68 1   
    53    25    69 1   
    54    26    27 1   
    55    26    66 1   
    56    26    67 1   
    57    27    28 1   
    58    27    71 1   
    59    27    72 1   
    60    28    29 1   
    61    28    70 1   
    62    29    30 1   
    63    29    73 1   
    64    30    31 2   
    65    30    32 1   
    66    32    33 1   
    67    32    74 1   
    68    32    75 1   
    69    33    34 2   
    70    33    36 1   
    71    34    35 1   
    72    34    38 1   
    73    35    76 1   
    74    35    77 1   
    75    35    78 1   
    76    36    37 1   
    77    37    38 ar  
    78    37    39 ar  
    79    38    42 ar  
    80    39    40 ar  
    81    39    79 1   
    82    40    41 ar  
    83    40    81 1   
    84    41    42 ar  
    85    41    82 1   
    86    42    80 1   
@<TRIPOS>SUBSTRUCTURE
     1 EEH         1 TEMP              0 ****  ****    0 ROOT
