@<TRIPOS>MOLECULE
EEI
   44    47     1     0     0
SMALL
No Charge or Current Charge


@<TRIPOS>ATOM
      1 C14        -19.2860   -21.5880    42.9780 ca         1 EEI      -0.111000
      2 C15        -20.1620   -20.8590    43.7970 ca         1 EEI      -0.115000
      3 C17        -21.8860   -17.0820    42.2480 cc         1 EEI      -0.199000
      4 C19        -20.4480   -14.9030    34.2600 cc         1 EEI       0.397500
      5 C18        -23.0450   -14.8850    41.6680 c3         1 EEI       0.058900
      6 C2         -20.3460   -13.9510    32.2260 cd         1 EEI       0.391300
      7 C3         -19.5680   -12.8680    32.7930 cd         1 EEI      -0.209000
      8 C4         -19.2230   -12.8070    34.1390 cc         1 EEI      -0.029300
      9 C5         -18.4180   -11.7100    34.7890 c3         1 EEI      -0.061800
     10 N1         -19.7160   -13.9070    34.8400 na         1 EEI      -0.074400
     11 C6         -19.5300   -14.1070    36.1810 cc         1 EEI      -0.271100
     12 C7         -20.1990   -15.2970    36.3800 cd         1 EEI       0.074400
     13 C8         -20.3540   -16.0410    37.6820 c3         1 EEI       0.126800
     14 C9         -21.4450   -16.2800    40.2560 cc         1 EEI       0.459800
     15 N2         -20.7410   -17.3880    40.3030 nd         1 EEI      -0.613000
     16 C10        -21.0140   -17.9010    41.5580 cd         1 EEI       0.286500
     17 C11        -20.4210   -19.1660    42.0450 ca         1 EEI      -0.102500
     18 C12        -19.5360   -19.9120    41.2310 ca         1 EEI      -0.095000
     19 C13        -18.9740   -21.1130    41.6950 ca         1 EEI      -0.115000
     20 C16        -20.7260   -19.6570    43.3350 ca         1 EEI      -0.095000
     21 N3         -22.1630   -16.0310    41.3990 na         1 EEI      -0.139500
     22 N4         -20.7580   -15.7790    35.1980 nd         1 EEI      -0.247600
     23 N5         -20.7960   -14.9780    32.9400 nc         1 EEI      -0.623000
     24 H1         -18.8500   -22.5180    43.3370 ha         1 EEI       0.110000
     25 H2         -20.4060   -21.2250    44.7920 ha         1 EEI       0.110000
     26 H3         -22.3120   -17.1670    43.2390 h4         1 EEI       0.157000
     27 H4         -23.4760   -14.9730    42.6720 h1         1 EEI       0.056700
     28 H5         -22.4690   -13.9540    41.6030 h1         1 EEI       0.056700
     29 H6         -23.8550   -14.8630    40.9280 h1         1 EEI       0.056700
     30 H7         -20.3090   -14.8840    30.2860 hc         1 EEI       0.059033
     31 H8         -21.7860   -13.9630    30.6260 hc         1 EEI       0.059033
     32 H9         -20.2830   -13.1160    30.2350 hc         1 EEI       0.059033
     33 H10        -19.2440   -12.0700    32.1350 ha         1 EEI       0.137000
     34 H11        -18.9960   -11.2150    35.5790 hc         1 EEI       0.062033
     35 H12        -17.5000   -12.1080    35.2360 hc         1 EEI       0.062033
     36 H13        -18.1290   -10.9440    34.0600 hc         1 EEI       0.062033
     37 H14        -18.9880   -13.4500    36.8510 h4         1 EEI       0.231000
     38 H15        -20.7420   -17.0470    37.4810 h1         1 EEI       0.076700
     39 H16        -19.3660   -16.1480    38.1480 h1         1 EEI       0.076700
     40 H17        -19.2800   -19.5630    40.2330 ha         1 EEI       0.119500
     41 H18        -18.2950   -21.6760    41.0580 ha         1 EEI       0.110000
     42 H19        -21.4010   -19.1120    43.9890 ha         1 EEI       0.119500
     43 S1         -21.4860   -15.1920    38.8750 ss         1 EEI      -0.326300
     44 C1         -20.6990   -13.9800    30.7660 c3         1 EEI      -0.149400
@<TRIPOS>BOND
     1     1     2 ar  
     2     1    19 ar  
     3     1    24 1   
     4     2    20 ar  
     5     2    25 1   
     6     3    16 2   
     7     3    21 1   
     8     3    26 1   
     9     4    10 1   
    10     4    22 2   
    11     4    23 1   
    12     5    21 1   
    13     5    27 1   
    14     5    28 1   
    15     5    29 1   
    16     6     7 1   
    17     6    23 2   
    18     6    44 1   
    19     7     8 2   
    20     7    33 1   
    21     8     9 1   
    22     8    10 1   
    23     9    34 1   
    24     9    35 1   
    25     9    36 1   
    26    10    11 1   
    27    11    12 2   
    28    11    37 1   
    29    12    13 1   
    30    12    22 1   
    31    13    38 1   
    32    13    39 1   
    33    13    43 1   
    34    14    15 2   
    35    14    21 1   
    36    14    43 1   
    37    15    16 1   
    38    16    17 1   
    39    17    18 ar  
    40    17    20 ar  
    41    18    19 ar  
    42    18    40 1   
    43    19    41 1   
    44    20    42 1   
    45    30    44 1   
    46    31    44 1   
    47    32    44 1   
@<TRIPOS>SUBSTRUCTURE
     1 EEI         1 TEMP              0 ****  ****    0 ROOT
