@<TRIPOS>MOLECULE
EEI
   44    47     1     0     0
SMALL
abcg2


@<TRIPOS>ATOM
      1 C14        -20.1160   -21.9990    43.3970 ca         1 EEI      -0.111000
      2 C15        -20.3680   -20.8500    44.1370 ca         1 EEI      -0.115000
      3 C17        -21.1970   -17.0750    41.9720 cc         1 EEI      -0.199000
      4 C19        -19.9930   -14.7870    34.4120 cc         1 EEI       0.397500
      5 C18        -21.7190   -14.8200    41.0240 c3         1 EEI       0.058900
      6 C2         -20.0870   -13.9600    32.3050 cd         1 EEI       0.391300
      7 C3         -19.9540   -12.6340    32.8000 cd         1 EEI      -0.209000
      8 C4         -19.8390   -12.4070    34.1350 cc         1 EEI      -0.029300
      9 C5         -19.6930   -11.0750    34.7740 c3         1 EEI      -0.061800
     10 N1         -19.8610   -13.5080    34.9390 na         1 EEI      -0.074400
     11 C6         -19.7690   -13.6430    36.3000 cc         1 EEI      -0.271100
     12 C7         -19.8420   -14.9920    36.5250 cd         1 EEI       0.074400
     13 C8         -19.8150   -15.6690    37.8440 c3         1 EEI       0.126800
     14 C9         -21.2860   -16.9640    39.7950 cc         1 EEI       0.459800
     15 N2         -21.0130   -18.2180    40.0630 nd         1 EEI      -0.613000
     16 C10        -20.9520   -18.3120    41.4200 cd         1 EEI       0.286500
     17 C11        -20.6660   -19.5740    42.1020 ca         1 EEI      -0.102500
     18 C12        -20.4120   -20.7340    41.3680 ca         1 EEI      -0.095000
     19 C13        -20.1400   -21.9340    42.0100 ca         1 EEI      -0.115000
     20 C16        -20.6400   -19.6510    43.4970 ca         1 EEI      -0.095000
     21 N3         -21.4100   -16.2310    40.9320 na         1 EEI      -0.139500
     22 N4         -19.9850   -15.6890    35.3670 nd         1 EEI      -0.247600
     23 N5         -20.1060   -15.0020    33.0960 nc         1 EEI      -0.623000
     24 H1         -19.9040   -22.9350    43.8970 ha         1 EEI       0.110000
     25 H2         -20.3530   -20.8870    45.2180 ha         1 EEI       0.110000
     26 H3         -21.2370   -16.7330    42.9930 h4         1 EEI       0.157000
     27 H4         -21.7130   -14.5300    42.0710 h1         1 EEI       0.056700
     28 H5         -20.9780   -14.2270    40.4930 h1         1 EEI       0.056700
     29 H6         -22.7030   -14.6160    40.6070 h1         1 EEI       0.056700
     30 H7         -20.2990   -15.2370    30.6000 hc         1 EEI       0.059033
     31 H8         -21.0860   -13.6590    30.4380 hc         1 EEI       0.059033
     32 H9         -19.3420   -13.7760    30.3080 hc         1 EEI       0.059033
     33 H10        -19.9440   -11.7970    32.1150 ha         1 EEI       0.137000
     34 H11        -20.5110   -10.8860    35.4720 hc         1 EEI       0.062033
     35 H12        -18.7620   -11.0160    35.3400 hc         1 EEI       0.062033
     36 H13        -19.6910   -10.2900    34.0220 hc         1 EEI       0.062033
     37 H14        -19.6610   -12.8090    36.9720 h4         1 EEI       0.231000
     38 H15        -19.1390   -16.5240    37.8370 h1         1 EEI       0.076700
     39 H16        -19.5090   -14.9780    38.6270 h1         1 EEI       0.076700
     40 H17        -20.4280   -20.6960    40.2870 ha         1 EEI       0.119500
     41 H18        -19.9460   -22.8210    41.4220 ha         1 EEI       0.110000
     42 H19        -20.8340   -18.7700    44.0960 ha         1 EEI       0.119500
     43 S1         -21.5130   -16.2850    38.2060 ss         1 EEI      -0.326300
     44 C1         -20.2100   -14.1780    30.8320 c3         1 EEI      -0.149400
@<TRIPOS>BOND
     1     1     2 ar  
     2     1    19 ar  
     3     1    24 1   
     4     2    20 ar  
     5     2    25 1   
     6     3    16 2   
     7     3    21 1   
     8     3    26 1   
     9     4    10 1   
    10     4    22 2   
    11     4    23 1   
    12     5    21 1   
    13     5    27 1   
    14     5    28 1   
    15     5    29 1   
    16     6     7 1   
    17     6    23 2   
    18     6    44 1   
    19     7     8 2   
    20     7    33 1   
    21     8     9 1   
    22     8    10 1   
    23     9    34 1   
    24     9    35 1   
    25     9    36 1   
    26    10    11 1   
    27    11    12 2   
    28    11    37 1   
    29    12    13 1   
    30    12    22 1   
    31    13    38 1   
    32    13    39 1   
    33    13    43 1   
    34    14    15 2   
    35    14    21 1   
    36    14    43 1   
    37    15    16 1   
    38    16    17 1   
    39    17    18 ar  
    40    17    20 ar  
    41    18    19 ar  
    42    18    40 1   
    43    19    41 1   
    44    20    42 1   
    45    30    44 1   
    46    31    44 1   
    47    32    44 1   
@<TRIPOS>SUBSTRUCTURE
     1 EEI         1 TEMP              0 ****  ****    0 ROOT
