@<TRIPOS>MOLECULE
EEJ
   77    81     1     0     0
SMALL
bcc


@<TRIPOS>ATOM
      1 C13         -4.2450    -0.0180     1.6530 ca         1 EEJ      -0.069500
      2 C17         -3.9990     0.8260    -0.5700 ca         1 EEJ      -0.069500
      3 C16         -5.0450     0.0260    -0.9870 ca         1 EEJ      -0.176000
      4 C15         -5.7050    -0.8150    -0.0870 ca         1 EEJ       0.106600
      5 C19          2.9220    -4.4640     1.5450 ca         1 EEJ       0.008800
      6 C20          3.4040    -5.7120     1.1890 ca         1 EEJ      -0.114000
      7 C21          4.1590    -5.8600     0.0390 ca         1 EEJ      -0.107000
      8 C22          4.4020    -4.7430    -0.7470 ca         1 EEJ       0.034400
      9 C23          3.9190    -3.4950    -0.3970 ca         1 EEJ      -0.106000
     10 C24          3.1690    -3.3300     0.7670 ca         1 EEJ      -0.025800
     11 C11         -1.2520     1.6310     0.5020 ca         1 EEJ      -0.188300
     12 C12         -3.5870     0.8250     0.7610 cp         1 EEJ      -0.085000
     13 C34         -7.5450    -2.4700     0.0490 c          1 EEJ       0.762100
     14 C27          2.4490    -4.6990     3.9790 cc         1 EEJ       0.394400
     15 N3           1.5830     1.1730    -0.1160 ns         1 EEJ      -0.576900
     16 C4           1.1140     2.5010     0.2030 c3         1 EEJ       0.070400
     17 C5          -0.2130     2.4610     0.9220 ca         1 EEJ       0.339600
     18 C6           0.9860     3.3330    -1.0750 c3         1 EEJ      -0.085400
     19 N7          -0.3460     3.2840     1.9440 nb         1 EEJ      -0.289000
     20 N8          -1.4870     3.3450     2.5910 nb         1 EEJ      -0.303000
     21 C9          -2.4900     2.5850     2.2370 ca         1 EEJ       0.450300
     22 C10         -2.4550     1.6670     1.1740 cp         1 EEJ      -0.076300
     23 C14         -5.2850    -0.8360     1.2450 ca         1 EEJ      -0.176000
     24 N18         -6.7480    -1.5780    -0.6010 ns         1 EEJ      -0.466100
     25 N25          2.1460    -4.3550     2.7230 na         1 EEJ      -0.001500
     26 C26          2.6920    -2.0070     1.1730 ce         1 EEJ      -0.040200
     27 N28          1.4100    -4.4490     4.7280 nd         1 EEJ      -0.377000
     28 N29          0.4780    -3.9530     3.9110 nd         1 EEJ      -0.035000
     29 N30          0.8970    -3.8930     2.7130 nc         1 EEJ      -0.189800
     30 C31          2.3890    -1.0220     0.3280 cf         1 EEJ      -0.219200
     31 O33          1.8920     0.5700     2.0310 o          1 EEJ      -0.575100
     32 O35         -7.4730    -2.7740     1.2170 o          1 EEJ      -0.563000
     33 O36         -8.4330    -2.9700    -0.8060 os         1 EEJ      -0.435900
     34 C37         -9.3580    -3.9270    -0.2940 c3         1 EEJ       0.148700
     35 C38          2.2980     3.5890    -1.8140 c6         1 EEJ      -0.080700
     36 C39          2.0190     4.2470    -3.1660 c6         1 EEJ      -0.074400
     37 C40          3.3110     4.6190    -3.8820 c6         1 EEJ      -0.096400
     38 C41          4.2010     5.4660    -2.9840 c6         1 EEJ       0.102000
     39 N42          4.4460     4.7820    -1.7260 n          1 EEJ      -0.481800
     40 C43          3.2380     4.4660    -0.9870 c6         1 EEJ       0.093000
     41 C44          5.6580     4.3770    -1.2860 c          1 EEJ       0.673100
     42 O45          5.7990     3.7650    -0.2330 o          1 EEJ      -0.601100
     43 C46          6.8570     4.7130    -2.1430 c3         1 EEJ      -0.177100
     44 H52         -3.9320    -0.0650     2.6870 ha         1 EEJ       0.140000
     45 H55         -3.5120     1.4720    -1.2900 ha         1 EEJ       0.140000
     46 H54         -5.3550     0.0570    -2.0250 ha         1 EEJ       0.152000
     47 H57          3.1830    -6.5760     1.8020 ha         1 EEJ       0.154000
     48 H58          4.5420    -6.8310    -0.2410 ha         1 EEJ       0.159000
     49 H59          4.1520    -2.6370    -1.0130 ha         1 EEJ       0.158000
     50 H51         -1.1130     0.9490    -0.3270 ha         1 EEJ       0.151000
     51 H47          1.6060     0.8860    -1.0820 hn         1 EEJ       0.315500
     52 H48          1.8210     2.9830     0.8830 h1         1 EEJ       0.103700
     53 H50          0.2780     2.8400    -1.7500 hc         1 EEJ       0.053700
     54 H49          0.5310     4.2910    -0.8060 hc         1 EEJ       0.053700
     55 H53         -5.7540    -1.4830     1.9670 ha         1 EEJ       0.152000
     56 H56         -6.9430    -1.4440    -1.5820 hn         1 EEJ       0.332500
     57 H60          2.5870    -1.8230     2.2360 ha         1 EEJ       0.166000
     58 H62          2.4410    -1.1620    -0.7460 ha         1 EEJ       0.127000
     59 H64         -8.8490    -4.8120     0.0850 h1         1 EEJ       0.052367
     60 H63         -9.9800    -3.5010     0.4930 h1         1 EEJ       0.052367
     61 H65         -9.9860    -4.2070    -1.1350 h1         1 EEJ       0.052367
     62 H66          2.8090     2.6370    -2.0030 hc         1 EEJ       0.054700
     63 H68          1.4220     3.5750    -3.7870 hc         1 EEJ       0.042200
     64 H67          1.4150     5.1500    -3.0120 hc         1 EEJ       0.042200
     65 H70          3.8530     3.7130    -4.1720 hc         1 EEJ       0.048700
     66 H69          3.0950     5.1710    -4.7990 hc         1 EEJ       0.048700
     67 H72          5.1380     5.6990    -3.4810 h1         1 EEJ       0.049700
     68 H71          3.7090     6.4210    -2.7700 h1         1 EEJ       0.049700
     69 H73          2.7270     5.4020    -0.7280 h1         1 EEJ       0.067200
     70 H74          3.5190     3.9810    -0.0560 h1         1 EEJ       0.067200
     71 H75          6.7910     4.2560    -3.1320 hc         1 EEJ       0.059367
     72 H77          6.9670     5.7880    -2.2870 hc         1 EEJ       0.059367
     73 H76          7.7540     4.3390    -1.6560 hc         1 EEJ       0.059367
     74 CL2         -3.9340     2.8130     3.1540 cl         1 EEJ      -0.142000
     75 C32          1.9390     0.2940     0.8400 c          1 EEJ       0.665300
     76 CL1          5.3390    -4.9090    -2.1880 cl         1 EEJ      -0.087400
     77 H61          3.4000    -5.0980     4.2890 h5         1 EEJ       0.078100
@<TRIPOS>BOND
     1     1    12 ar  
     2     1    23 ar  
     3     1    44 1   
     4     2     3 ar  
     5     2    12 ar  
     6     2    45 1   
     7     3     4 ar  
     8     3    46 1   
     9     4    23 ar  
    10     4    24 1   
    11     5     6 ar  
    12     5    10 ar  
    13     5    25 1   
    14     6     7 ar  
    15     6    47 1   
    16     7     8 ar  
    17     7    48 1   
    18     8     9 ar  
    19     8    76 1   
    20     9    10 ar  
    21     9    49 1   
    22    10    26 1   
    23    11    17 ar  
    24    11    22 ar  
    25    11    50 1   
    26    12    22 1   
    27    13    24 1   
    28    13    32 2   
    29    13    33 1   
    30    14    25 1   
    31    14    27 2   
    32    14    77 1   
    33    15    16 1   
    34    15    51 1   
    35    15    75 1   
    36    16    17 1   
    37    16    18 1   
    38    16    52 1   
    39    17    19 ar  
    40    18    35 1   
    41    18    53 1   
    42    18    54 1   
    43    19    20 ar  
    44    20    21 ar  
    45    21    22 ar  
    46    21    74 1   
    47    23    55 1   
    48    24    56 1   
    49    25    29 1   
    50    26    30 2   
    51    26    57 1   
    52    27    28 1   
    53    28    29 2   
    54    30    58 1   
    55    30    75 1   
    56    31    75 2   
    57    33    34 1   
    58    34    59 1   
    59    34    60 1   
    60    34    61 1   
    61    35    36 1   
    62    35    40 1   
    63    35    62 1   
    64    36    37 1   
    65    36    63 1   
    66    36    64 1   
    67    37    38 1   
    68    37    65 1   
    69    37    66 1   
    70    38    39 1   
    71    38    67 1   
    72    38    68 1   
    73    39    40 1   
    74    39    41 1   
    75    40    69 1   
    76    40    70 1   
    77    41    42 2   
    78    41    43 1   
    79    43    71 1   
    80    43    72 1   
    81    43    73 1   
@<TRIPOS>SUBSTRUCTURE
     1 EEJ         1 TEMP              0 ****  ****    0 ROOT
