@<TRIPOS>MOLECULE
EEJ
   77    81     1     0     0
SMALL
No Charge or Current Charge


@<TRIPOS>ATOM
      1 C13         -4.7280     0.0690     1.5620 ca         1 EEJ      -0.051500
      2 C17         -4.3680     0.9660    -0.6610 ca         1 EEJ      -0.051500
      3 C16         -5.4180     0.1710    -1.1500 ca         1 EEJ      -0.158000
      4 C15         -6.1360    -0.6790    -0.2910 ca         1 EEJ       0.014000
      5 C19          3.7280    -4.1920     1.7290 ca         1 EEJ       0.008800
      6 C20          4.2300    -5.4340     1.2850 ca         1 EEJ      -0.096000
      7 C21          4.5690    -5.6260    -0.0640 ca         1 EEJ      -0.089000
      8 C22          4.4110    -4.5750    -0.9780 ca         1 EEJ       0.126000
      9 C23          3.9150    -3.3350    -0.5480 ca         1 EEJ      -0.088000
     10 C24          3.5670    -3.1260     0.8030 ca         1 EEJ      -0.025800
     11 C11         -1.6300     1.7730     0.5460 ca         1 EEJ      -0.105000
     12 C12         -4.0100     0.9380     0.7070 cp         1 EEJ      -0.085000
     13 C34         -8.0800    -2.3510    -0.2970 c          1 EEJ       0.646100
     14 C27          4.2500    -4.2150     4.1220 cc         1 EEJ       0.394400
     15 N3           1.3130     1.2580     0.0820 ns         1 EEJ      -0.509900
     16 C4           0.7940     2.6070     0.3650 c3         1 EEJ       0.070400
     17 C5          -0.5800     2.5710     1.0420 ca         1 EEJ       0.274300
     18 C6           0.7750     3.4750    -0.9200 c3         1 EEJ      -0.085400
     19 N7          -0.7530     3.3510     2.1370 nb         1 EEJ      -0.289000
     20 N8          -1.9380     3.3810     2.7820 nb         1 EEJ      -0.303000
     21 C9          -2.9810     2.6280     2.3530 ca         1 EEJ       0.385000
     22 C10         -2.8810     1.7790     1.2130 cp         1 EEJ      -0.011000
     23 C14         -5.7790    -0.7270     1.0740 ca         1 EEJ      -0.158000
     24 N18         -7.1860    -1.4550    -0.8530 ns         1 EEJ      -0.140000
     25 N25          3.3900    -4.0490     3.0760 na         1 EEJ      -0.001500
     26 C26          3.0590    -1.7850     1.2320 ce         1 EEJ      -0.090200
     27 N28          3.5040    -4.1160     5.2090 nd         1 EEJ      -0.377000
     28 N29          2.2020    -3.9190     4.7800 nd         1 EEJ      -0.035000
     29 N30          2.1090    -3.9040     3.4740 nc         1 EEJ      -0.189800
     30 C31          2.4160    -0.8450     0.4770 cf         1 EEJ      -0.269200
     31 O33          2.1150     0.8070     2.1620 o          1 EEJ      -0.575100
     32 O35         -8.1510    -2.6720     0.8820 o          1 EEJ      -0.514000
     33 O36         -8.8960    -2.8320    -1.2850 os         1 EEJ      -0.459100
     34 C37         -9.9100    -3.7860    -0.9150 c3         1 EEJ       0.171900
     35 C38          2.1210     3.5760    -1.7080 c6         1 EEJ      -0.080700
     36 C39          1.9490     4.4370    -2.9900 c6         1 EEJ      -0.074400
     37 C40          3.2860     4.5740    -3.7590 c6         1 EEJ      -0.096400
     38 C41          4.4020     5.1060    -2.8310 c6         1 EEJ       0.102000
     39 N42          4.5390     4.2340    -1.6330 n          1 EEJ      -0.414800
     40 C43          3.2830     4.1390    -0.8410 c6         1 EEJ       0.093000
     41 C44          5.6460     3.3840    -1.3920 c          1 EEJ       0.606100
     42 O45          5.6230     2.5610    -0.4860 o          1 EEJ      -0.601100
     43 C46          6.9020     3.5250    -2.2550 c3         1 EEJ      -0.177100
     44 H52         -4.4610     0.0020     2.6150 ha         1 EEJ       0.122000
     45 H55         -3.8310     1.6190    -1.3460 ha         1 EEJ       0.122000
     46 H54         -5.6740     0.2200    -2.2060 ha         1 EEJ       0.134000
     47 H57          4.3480    -6.2580     1.9860 ha         1 EEJ       0.136000
     48 H58          4.9530    -6.5860    -0.4000 ha         1 EEJ       0.141000
     49 H59          3.8180    -2.5320    -1.2730 ha         1 EEJ       0.140000
     50 H51         -1.4770     1.1530    -0.3320 ha         1 EEJ       0.133000
     51 H47          1.2250     0.8900    -0.8570 hn         1 EEJ       0.315500
     52 H48          1.4870     3.0840     1.0720 h1         1 EEJ       0.103700
     53 H50          0.0010     3.0780    -1.5890 hc         1 EEJ       0.053700
     54 H49          0.4410     4.4830    -0.6430 hc         1 EEJ       0.053700
     55 H53         -6.2970    -1.3760     1.7720 ha         1 EEJ       0.134000
     56 H56         -7.3040    -1.3310    -1.8490 hn         1 EEJ       0.166000
     57 H60          3.2290    -1.5510     2.2860 ha         1 EEJ       0.216000
     58 H62          2.2120    -1.0480    -0.5720 ha         1 EEJ       0.177000
     59 H64         -9.4610    -4.6880    -0.4790 h1         1 EEJ       0.052367
     60 H63        -10.6060    -3.3560    -0.1830 h1         1 EEJ       0.052367
     61 H65        -10.4890    -4.0880    -1.7970 h1         1 EEJ       0.052367
     62 H66          2.3900     2.5570    -2.0200 hc         1 EEJ       0.054700
     63 H68          1.1900     3.9900    -3.6470 hc         1 EEJ       0.042200
     64 H67          1.5790     5.4370    -2.7210 hc         1 EEJ       0.042200
     65 H70          3.5830     3.5980    -4.1660 hc         1 EEJ       0.048700
     66 H69          3.1600     5.2490    -4.6160 hc         1 EEJ       0.048700
     67 H72          5.3390     5.1860    -3.3960 h1         1 EEJ       0.049700
     68 H71          4.1440     6.1230    -2.4990 h1         1 EEJ       0.049700
     69 H73          3.0160     5.1400    -0.4730 h1         1 EEJ       0.067200
     70 H74          3.4340     3.5030     0.0420 h1         1 EEJ       0.067200
     71 H75          6.6400     3.3340    -3.3020 hc         1 EEJ       0.059367
     72 H77          7.2190     4.5730    -2.2670 hc         1 EEJ       0.059367
     73 H76          7.7120     2.8640    -1.9270 hc         1 EEJ       0.059367
     74 Cl2         -4.4750     2.8260     3.2690 cl         1 EEJ      -0.142000
     75 C32          1.9510     0.4620     1.0030 c          1 EEJ       0.598300
     76 Cl1          4.8410    -4.8110    -2.6670 cl         1 EEJ      -0.179000
     77 H61          5.3150    -4.3860     4.0350 h5         1 EEJ       0.078100
@<TRIPOS>BOND
     1     1    12 ar  
     2     1    23 ar  
     3     1    44 1   
     4     2     3 ar  
     5     2    12 ar  
     6     2    45 1   
     7     3     4 ar  
     8     3    46 1   
     9     4    23 ar  
    10     4    24 1   
    11     5     6 ar  
    12     5    10 ar  
    13     5    25 1   
    14     6     7 ar  
    15     6    47 1   
    16     7     8 ar  
    17     7    48 1   
    18     8     9 ar  
    19     8    76 1   
    20     9    10 ar  
    21     9    49 1   
    22    10    26 1   
    23    11    17 ar  
    24    11    22 ar  
    25    11    50 1   
    26    12    22 1   
    27    13    24 1   
    28    13    32 2   
    29    13    33 1   
    30    14    25 1   
    31    14    27 2   
    32    14    77 1   
    33    15    16 1   
    34    15    51 1   
    35    15    75 1   
    36    16    17 1   
    37    16    18 1   
    38    16    52 1   
    39    17    19 ar  
    40    18    35 1   
    41    18    53 1   
    42    18    54 1   
    43    19    20 ar  
    44    20    21 ar  
    45    21    22 ar  
    46    21    74 1   
    47    23    55 1   
    48    24    56 1   
    49    25    29 1   
    50    26    30 2   
    51    26    57 1   
    52    27    28 1   
    53    28    29 2   
    54    30    58 1   
    55    30    75 1   
    56    31    75 2   
    57    33    34 1   
    58    34    59 1   
    59    34    60 1   
    60    34    61 1   
    61    35    36 1   
    62    35    40 1   
    63    35    62 1   
    64    36    37 1   
    65    36    63 1   
    66    36    64 1   
    67    37    38 1   
    68    37    65 1   
    69    37    66 1   
    70    38    39 1   
    71    38    67 1   
    72    38    68 1   
    73    39    40 1   
    74    39    41 1   
    75    40    69 1   
    76    40    70 1   
    77    41    42 2   
    78    41    43 1   
    79    43    71 1   
    80    43    72 1   
    81    43    73 1   
@<TRIPOS>SUBSTRUCTURE
     1 EEJ         1 TEMP              0 ****  ****    0 ROOT
