@<TRIPOS>MOLECULE
EEK
   24    24     1     0     0
SMALL
No Charge or Current Charge


@<TRIPOS>ATOM
      1 C10         -4.1350    -0.7400     0.3820 c          1 EEK       0.622100
      2 C15          1.2030    -1.8360     0.5450 ca         1 EEK      -0.162000
      3 C02          3.1350    -0.4000     0.1760 ca         1 EEK       0.089000
      4 C03          2.3160     0.5070    -0.5270 ca         1 EEK       0.146000
      5 C05          0.9450     0.2390    -0.6920 ca         1 EEK      -0.122000
      6 C06          0.3750    -0.9380    -0.1550 ca         1 EEK      -0.008000
      7 C08         -2.0720    -0.6290    -0.8840 c          1 EEK       0.622100
      8 C09         -3.3940    -1.3610    -0.7800 c3         1 EEK      -0.255400
      9 C16          2.5740    -1.5700     0.7110 ca         1 EEK      -0.067000
     10 N07         -1.0010    -1.2770    -0.2810 ns         1 EEK      -0.140000
     11 N11         -5.1110     0.1880     0.0400 ns         1 EEK      -0.383400
     12 O12         -5.7120     1.0410     1.0440 oh         1 EEK      -0.412100
     13 O13         -3.8940    -1.0490     1.5400 o          1 EEK      -0.552100
     14 O14         -1.9940     0.4470    -1.4610 o          1 EEK      -0.555100
     15 Cl4          2.9840     1.9880    -1.2130 cl         1 EEK      -0.165000
     16 H1           0.7840    -2.7480     0.9650 ha         1 EEK       0.117000
     17 H2           0.3500     0.9610    -1.2400 ha         1 EEK       0.168000
     18 H3          -3.2180    -2.4170    -0.5460 hc         1 EEK       0.080200
     19 H4          -3.9520    -1.2020    -1.7090 hc         1 EEK       0.080200
     20 H5           3.2030    -2.2720     1.2540 ha         1 EEK       0.132000
     21 H6          -1.2440    -2.1570     0.1550 hn         1 EEK       0.153000
     22 H7          -5.1680     0.5180    -0.9230 hn         1 EEK       0.339500
     23 H8          -6.6810     0.9530     0.8760 ho         1 EEK       0.443000
     24 Cl1          4.8580    -0.0920     0.4000 cl         1 EEK      -0.170000
@<TRIPOS>BOND
     1     1     8 1   
     2     1    11 1   
     3     1    13 2   
     4     2     6 ar  
     5     2     9 ar  
     6     2    16 1   
     7     3     4 ar  
     8     3     9 ar  
     9     3    24 1   
    10     4     5 ar  
    11     4    15 1   
    12     5     6 ar  
    13     5    17 1   
    14     6    10 1   
    15     7     8 1   
    16     7    10 1   
    17     7    14 2   
    18     8    18 1   
    19     8    19 1   
    20     9    20 1   
    21    10    21 1   
    22    11    12 1   
    23    11    22 1   
    24    12    23 1   
@<TRIPOS>SUBSTRUCTURE
     1 EEK         1 TEMP              0 ****  ****    0 ROOT
