@<TRIPOS>MOLECULE
EEK
   24    24     1     0     0
SMALL
abcg2


@<TRIPOS>ATOM
      1 C10         -4.3120    -0.2380     0.3850 c          1 EEK       0.622100
      2 C15          1.3400    -2.0240     0.1720 ca         1 EEK      -0.162000
      3 C02          3.2270    -0.5560    -0.0510 ca         1 EEK       0.089000
      4 C03          2.3560     0.4970    -0.2890 ca         1 EEK       0.146000
      5 C05          0.9820     0.3060    -0.3010 ca         1 EEK      -0.122000
      6 C06          0.4620    -0.9650    -0.0700 ca         1 EEK      -0.008000
      7 C08         -1.9530    -0.4480    -0.3200 c          1 EEK       0.622100
      8 C09         -3.2990    -1.1420    -0.2840 c3         1 EEK      -0.255400
      9 C16          2.7050    -1.8210     0.1810 ca         1 EEK      -0.067000
     10 N07         -0.9010    -1.2610    -0.0550 ns         1 EEK      -0.140000
     11 N11         -5.3520     0.0750    -0.4030 ns         1 EEK      -0.383400
     12 O12         -6.2770     0.9790     0.0170 oh         1 EEK      -0.412100
     13 O13         -4.1910     0.1290     1.5380 o          1 EEK      -0.552100
     14 O14         -1.8600     0.7330    -0.5930 o          1 EEK      -0.555100
     15 CL4          2.9660     2.0830    -0.5740 cl         1 EEK      -0.165000
     16 H1           0.9550    -3.0190     0.3570 ha         1 EEK       0.117000
     17 H2           0.3380     1.1500    -0.4850 ha         1 EEK       0.168000
     18 H3          -3.2640    -2.0830     0.2680 hc         1 EEK       0.080200
     19 H4          -3.5720    -1.3900    -1.3130 hc         1 EEK       0.080200
     20 H5           3.3700    -2.6510     0.3690 ha         1 EEK       0.132000
     21 H6          -1.1230    -2.2200     0.1630 hn         1 EEK       0.153000
     22 H7          -5.3710    -0.1300    -1.3910 hn         1 EEK       0.339500
     23 H8          -7.0050     0.4690     0.3950 ho         1 EEK       0.443000
     24 CL1          4.9320    -0.3180    -0.0380 cl         1 EEK      -0.170000
@<TRIPOS>BOND
     1     1     8 1   
     2     1    11 1   
     3     1    13 2   
     4     2     6 ar  
     5     2     9 ar  
     6     2    16 1   
     7     3     4 ar  
     8     3     9 ar  
     9     3    24 1   
    10     4     5 ar  
    11     4    15 1   
    12     5     6 ar  
    13     5    17 1   
    14     6    10 1   
    15     7     8 1   
    16     7    10 1   
    17     7    14 2   
    18     8    18 1   
    19     8    19 1   
    20     9    20 1   
    21    10    21 1   
    22    11    12 1   
    23    11    22 1   
    24    12    23 1   
@<TRIPOS>SUBSTRUCTURE
     1 EEK         1 TEMP              0 ****  ****    0 ROOT
