@<TRIPOS>MOLECULE
EEN
   30    30     1     0     0
SMALL
No Charge or Current Charge


@<TRIPOS>ATOM
      1 F20          3.9130    -0.5990    -1.6920 f          1 EEN      -0.114000
      2 CME          3.9490    -0.4260    -0.3480 c3         1 EEN       0.090300
      3 F23          4.3130     0.8590    -0.1190 f          1 EEN      -0.114000
      4 C2N          2.5850    -0.7440     0.2950 c          1 EEN       0.559100
      5 O2N          2.4460    -1.5990     1.1600 o          1 EEN      -0.559100
      6 N2           1.5250     0.0150    -0.1580 ns         1 EEN      -0.481900
      7 C2           0.1060    -0.1400     0.2440 c6         1 EEN       0.094700
      8 C1          -0.5960     1.2530     0.3680 c6         1 EEN       0.376300
      9 O5          -2.0010     1.1120     0.6480 os         1 EEN      -0.449000
     10 C5          -2.7490     0.3230    -0.3170 c6         1 EEN       0.139300
     11 C6          -4.2680     0.3850     0.0490 c3         1 EEN       0.168600
     12 O6          -4.7940     1.7270     0.0530 oh         1 EEN      -0.708000
     13 C4          -2.1860    -1.1340    -0.3750 c6         1 EEN       0.110300
     14 O4          -2.3190    -1.8390     0.8830 oh         1 EEN      -0.690000
     15 C3          -0.6780    -1.0540    -0.7590 c6         1 EEN       0.162300
     16 O3          -0.1340    -2.3840    -0.7910 oh         1 EEN      -0.629000
     17 O1          -0.4700     2.0230    -0.8280 oh         1 EEN      -0.694000
     18 H1           4.7100    -1.0910     0.0740 h2         1 EEN       0.083700
     19 H2           1.7370     0.7110    -0.8660 hn         1 EEN       0.339500
     20 H3           0.0690    -0.6060     1.2400 h1         1 EEN       0.123700
     21 H4          -0.1250     1.8000     1.2010 h2         1 EEN       0.082700
     22 H5          -2.6440     0.7770    -1.3130 h1         1 EEN       0.063700
     23 H6          -4.8200    -0.2290    -0.6750 h1         1 EEN       0.026700
     24 H7          -4.4080    -0.0710     1.0390 h1         1 EEN       0.026700
     25 H8          -5.7260     1.6700     0.3680 ho         1 EEN       0.505000
     26 H9          -2.7170    -1.6810    -1.1680 h1         1 EEN       0.033700
     27 H10         -3.2690    -2.0720     0.9980 ho         1 EEN       0.501000
     28 H11         -0.6020    -0.6060    -1.7610 h1         1 EEN       0.044700
     29 H12         -0.5640    -2.8400    -0.0330 ho         1 EEN       0.441000
     30 H13         -1.0510     2.8010    -0.6860 ho         1 EEN       0.465000
@<TRIPOS>BOND
     1     1     2 1   
     2     2     3 1   
     3     2     4 1   
     4     2    18 1   
     5     4     5 2   
     6     4     6 1   
     7     6     7 1   
     8     6    19 1   
     9     7     8 1   
    10     7    15 1   
    11     7    20 1   
    12     8     9 1   
    13     8    17 1   
    14     8    21 1   
    15     9    10 1   
    16    10    11 1   
    17    10    13 1   
    18    10    22 1   
    19    11    12 1   
    20    11    23 1   
    21    11    24 1   
    22    12    25 1   
    23    13    14 1   
    24    13    15 1   
    25    13    26 1   
    26    14    27 1   
    27    15    16 1   
    28    15    28 1   
    29    16    29 1   
    30    17    30 1   
@<TRIPOS>SUBSTRUCTURE
     1 EEN         1 TEMP              0 ****  ****    0 ROOT
