@<TRIPOS>MOLECULE
EEN
   30    30     1     0     0
SMALL
abcg2


@<TRIPOS>ATOM
      1 F20          3.7370     0.3710    -1.4210 f          1 EEN      -0.114000
      2 CME          3.8070    -0.3750    -0.2880 c3         1 EEN       0.090300
      3 F23          4.6480     0.2630     0.5630 f          1 EEN      -0.114000
      4 C2N          2.4490    -0.5170     0.3990 c          1 EEN       0.559100
      5 O2N          2.4140    -1.1000     1.4680 o          1 EEN      -0.559100
      6 N2           1.4110     0.0110    -0.2480 ns         1 EEN      -0.481900
      7 C2           0.0450    -0.1040     0.2030 c6         1 EEN       0.094700
      8 C1          -0.6380     1.2680     0.1530 c6         1 EEN       0.376300
      9 O5          -1.9820     1.1660     0.5140 os         1 EEN      -0.449000
     10 C5          -2.7530     0.2650    -0.2670 c6         1 EEN       0.139300
     11 C6          -4.1880     0.3500     0.2020 c3         1 EEN       0.168600
     12 O6          -4.6960     1.6260    -0.1070 oh         1 EEN      -0.708000
     13 C4          -2.1900    -1.1530    -0.1620 c6         1 EEN       0.110300
     14 O4          -2.2360    -1.6530     1.1530 oh         1 EEN      -0.690000
     15 C3          -0.7320    -1.1280    -0.6230 c6         1 EEN       0.162300
     16 O3          -0.0910    -2.3660    -0.4850 oh         1 EEN      -0.629000
     17 O1          -0.4620     1.7810    -1.1320 oh         1 EEN      -0.694000
     18 H1           4.2240    -1.3520    -0.5350 h2         1 EEN       0.083700
     19 H2           1.5660     0.4660    -1.1350 hn         1 EEN       0.339500
     20 H3           0.0650    -0.4260     1.2450 h1         1 EEN       0.123700
     21 H4          -0.1860     1.9240     0.9040 h2         1 EEN       0.082700
     22 H5          -2.7260     0.5530    -1.3270 h1         1 EEN       0.063700
     23 H6          -4.7510    -0.4440    -0.3070 h1         1 EEN       0.026700
     24 H7          -4.2410     0.1450     1.2780 h1         1 EEN       0.026700
     25 H8          -5.6120     1.6580     0.1800 ho         1 EEN       0.505000
     26 H9          -2.7600    -1.7930    -0.8500 h1         1 EEN       0.033700
     27 H10         -3.0940    -2.0590     1.3040 ho         1 EEN       0.501000
     28 H11         -0.7360    -0.8040    -1.6740 h1         1 EEN       0.044700
     29 H12         -0.4380    -2.9650    -1.1530 ho         1 EEN       0.441000
     30 H13         -0.6200     2.7310    -1.1210 ho         1 EEN       0.465000
@<TRIPOS>BOND
     1     1     2 1   
     2     2     3 1   
     3     2     4 1   
     4     2    18 1   
     5     4     5 2   
     6     4     6 1   
     7     6     7 1   
     8     6    19 1   
     9     7     8 1   
    10     7    15 1   
    11     7    20 1   
    12     8     9 1   
    13     8    17 1   
    14     8    21 1   
    15     9    10 1   
    16    10    11 1   
    17    10    13 1   
    18    10    22 1   
    19    11    12 1   
    20    11    23 1   
    21    11    24 1   
    22    12    25 1   
    23    13    14 1   
    24    13    15 1   
    25    13    26 1   
    26    14    27 1   
    27    15    16 1   
    28    15    28 1   
    29    16    29 1   
    30    17    30 1   
@<TRIPOS>SUBSTRUCTURE
     1 EEN         1 TEMP              0 ****  ****    0 ROOT
