@<TRIPOS>MOLECULE
EEO
   34    34     1     0     0
SMALL
No Charge or Current Charge


@<TRIPOS>ATOM
      1 N1          -5.4330    -0.5800   -16.1830 n          1 EEO      -0.333800
      2 C4          -6.3050     0.3990   -16.9180 c3         1 EEO      -0.048300
      3 C5          -6.0610    -1.2670   -15.0280 c3         1 EEO       0.103000
      4 C6          -5.8490    -0.5470   -13.6770 c3         1 EEO      -0.095400
      5 C7          -5.7870     1.0000   -13.7390 c3         1 EEO      -0.065400
      6 C8          -6.8370     1.6750   -14.6550 c3         1 EEO      -0.062400
      7 C10         -3.1540    -1.7380   -15.7680 c3         1 EEO      -0.132700
      8 C1          -6.4310     1.7500   -16.1530 c3         1 EEO      -0.064400
      9 C11         -7.6670    -0.1960   -17.4090 c          1 EEO       0.713000
     10 C2          -2.7640    -3.0310   -16.5140 c3         1 EEO       0.085600
     11 C3          -1.9050    -0.9210   -15.3580 c3         1 EEO      -0.078100
     12 C9          -4.1140    -0.8780   -16.6350 c          1 EEO       0.607100
     13 O1          -3.7020    -0.4160   -17.6960 o          1 EEO      -0.652100
     14 O2          -8.7150     0.1790   -16.9000 o          1 EEO      -0.719000
     15 O3          -7.6330    -1.0060   -18.3260 o          1 EEO      -0.719000
     16 S1          -4.1980    -4.1560   -16.8350 sh         1 EEO      -0.396800
     17 H1          -5.8100     0.6580   -17.8610 h1         1 EEO       0.072700
     18 H2          -7.1430    -1.3210   -15.1980 h1         1 EEO       0.063700
     19 H3          -5.7290    -2.3110   -14.9640 h1         1 EEO       0.063700
     20 H4          -6.6550    -0.8490   -12.9970 hc         1 EEO       0.022200
     21 H5          -4.9180    -0.9050   -13.2220 hc         1 EEO       0.022200
     22 H6          -4.7820     1.3090   -14.0540 hc         1 EEO       0.020200
     23 H7          -5.9130     1.3820   -12.7190 hc         1 EEO       0.020200
     24 H8          -6.9800     2.7040   -14.3010 hc         1 EEO       0.031700
     25 H9          -7.8080     1.1780   -14.5410 hc         1 EEO       0.031700
     26 H10         -3.6330    -2.0450   -14.8370 hc         1 EEO       0.063700
     27 H11         -5.4640     2.2650   -16.2150 hc         1 EEO       0.034700
     28 H12         -7.1410     2.3940   -16.6840 hc         1 EEO       0.034700
     29 H13         -2.0300    -3.5880   -15.9160 h1         1 EEO       0.052700
     30 H14         -2.2950    -2.7810   -17.4740 h1         1 EEO       0.052700
     31 H15         -2.2030    -0.0140   -14.8170 hc         1 EEO       0.032367
     32 H16         -1.2550    -1.5100   -14.7000 hc         1 EEO       0.032367
     33 H17         -1.3230    -0.6210   -16.2380 hc         1 EEO       0.032367
     34 H19         -3.4890    -5.1260   -17.4610 hs         1 EEO       0.173800
@<TRIPOS>BOND
     1     1     2 1   
     2     1     3 1   
     3     1    12 1   
     4     2     8 1   
     5     2     9 1   
     6     2    17 1   
     7     3     4 1   
     8     3    18 1   
     9     3    19 1   
    10     4     5 1   
    11     4    20 1   
    12     4    21 1   
    13     5     6 1   
    14     5    22 1   
    15     5    23 1   
    16     6     8 1   
    17     6    24 1   
    18     6    25 1   
    19     7    10 1   
    20     7    11 1   
    21     7    12 1   
    22     7    26 1   
    23     8    27 1   
    24     8    28 1   
    25     9    14 1   
    26     9    15 1   
    27    10    16 1   
    28    10    29 1   
    29    10    30 1   
    30    11    31 1   
    31    11    32 1   
    32    11    33 1   
    33    12    13 2   
    34    16    34 1   
@<TRIPOS>SUBSTRUCTURE
     1 EEO         1 TEMP              0 ****  ****    0 ROOT
