@<TRIPOS>MOLECULE
EEO
   34    34     1     0     0
SMALL
abcg2


@<TRIPOS>ATOM
      1 N1          -5.4520    -0.6400   -16.1470 n          1 EEO      -0.333800
      2 C4          -6.2960     0.2820   -16.9010 c3         1 EEO      -0.048300
      3 C5          -6.0410    -1.1920   -14.9340 c3         1 EEO       0.103000
      4 C6          -5.6690    -0.4420   -13.6610 c3         1 EEO      -0.095400
      5 C7          -5.6630     1.0790   -13.8240 c3         1 EEO      -0.065400
      6 C8          -6.7650     1.6450   -14.7250 c3         1 EEO      -0.062400
      7 C10         -3.3100    -1.8150   -15.7300 c3         1 EEO      -0.132700
      8 C1          -6.4080     1.6400   -16.2120 c3         1 EEO      -0.064400
      9 C11         -7.6470    -0.3820   -17.3070 c          1 EEO       0.713000
     10 C2          -2.7720    -2.9100   -16.6450 c3         1 EEO       0.085600
     11 C3          -2.1500    -1.0400   -15.1040 c3         1 EEO      -0.078100
     12 C9          -4.1830    -0.8560   -16.5360 c          1 EEO       0.607100
     13 O1          -3.6840    -0.3080   -17.5170 o          1 EEO      -0.652100
     14 O2          -8.6230     0.3790   -17.4360 o          1 EEO      -0.719000
     15 O3          -7.6130    -1.6060   -17.5330 o          1 EEO      -0.719000
     16 S1          -4.1650    -3.8870   -17.3130 sh         1 EEO      -0.396800
     17 H1          -5.7880     0.4580   -17.8520 h1         1 EEO       0.072700
     18 H2          -7.1200    -1.1470   -15.0600 h1         1 EEO       0.063700
     19 H3          -5.8150    -2.2540   -14.8380 h1         1 EEO       0.063700
     20 H4          -6.3940    -0.7310   -12.8960 hc         1 EEO       0.022200
     21 H5          -4.6920    -0.7650   -13.2890 hc         1 EEO       0.022200
     22 H6          -4.6950     1.3970   -14.2240 hc         1 EEO       0.020200
     23 H7          -5.7320     1.5270   -12.8300 hc         1 EEO       0.020200
     24 H8          -6.9400     2.6850   -14.4390 hc         1 EEO       0.031700
     25 H9          -7.7140     1.1290   -14.5480 hc         1 EEO       0.031700
     26 H10         -3.8630    -2.2930   -14.9230 hc         1 EEO       0.063700
     27 H11         -5.4520     2.1620   -16.3200 hc         1 EEO       0.034700
     28 H12         -7.1390     2.2320   -16.7640 hc         1 EEO       0.034700
     29 H13         -2.1120    -3.5660   -16.0790 h1         1 EEO       0.052700
     30 H14         -2.2070    -2.4750   -17.4680 h1         1 EEO       0.052700
     31 H15         -2.5160    -0.2460   -14.4500 hc         1 EEO       0.032367
     32 H16         -1.5320    -1.7060   -14.5030 hc         1 EEO       0.032367
     33 H17         -1.5190    -0.5850   -15.8680 hc         1 EEO       0.032367
     34 H19         -3.4530    -4.6840   -18.1170 hs         1 EEO       0.173800
@<TRIPOS>BOND
     1     1     2 1   
     2     1     3 1   
     3     1    12 1   
     4     2     8 1   
     5     2     9 1   
     6     2    17 1   
     7     3     4 1   
     8     3    18 1   
     9     3    19 1   
    10     4     5 1   
    11     4    20 1   
    12     4    21 1   
    13     5     6 1   
    14     5    22 1   
    15     5    23 1   
    16     6     8 1   
    17     6    24 1   
    18     6    25 1   
    19     7    10 1   
    20     7    11 1   
    21     7    12 1   
    22     7    26 1   
    23     8    27 1   
    24     8    28 1   
    25     9    14 1   
    26     9    15 1   
    27    10    16 1   
    28    10    29 1   
    29    10    30 1   
    30    11    31 1   
    31    11    32 1   
    32    11    33 1   
    33    12    13 2   
    34    16    34 1   
@<TRIPOS>SUBSTRUCTURE
     1 EEO         1 TEMP              0 ****  ****    0 ROOT
