@<TRIPOS>MOLECULE
EEQ
   30    30     1     0     0
SMALL
No Charge or Current Charge


@<TRIPOS>ATOM
      1 CME          4.2360     0.1480     0.6670 c3         1 EEQ       0.103600
      2 F23          5.3440     0.6840     0.0840 f          1 EEQ      -0.236000
      3 C2N          2.9420     0.3930    -0.1390 c          1 EEQ       0.577100
      4 O2N          2.9060     1.0200    -1.1920 o          1 EEQ      -0.555100
      5 N2           1.8050    -0.1680     0.4080 ns         1 EEQ      -0.501900
      6 C2           0.4240    -0.0230    -0.1180 c6         1 EEQ       0.096700
      7 C1          -0.3790    -1.3590     0.0320 c6         1 EEQ       0.375300
      8 O5          -1.7500    -1.1960    -0.3770 os         1 EEQ      -0.450000
      9 C5          -2.4860    -0.1550     0.3230 c6         1 EEQ       0.136300
     10 C6          -3.9820    -0.2030    -0.1300 c3         1 EEQ       0.167600
     11 O6          -4.6130    -1.4710     0.1360 oh         1 EEQ      -0.708000
     12 C4          -1.8120     1.2350     0.0870 c6         1 EEQ       0.110300
     13 O4          -1.8170     1.6320    -1.3060 oh         1 EEQ      -0.689000
     14 C3          -0.3390     1.1490     0.5890 c6         1 EEQ       0.163300
     15 O3           0.3070     2.4110     0.3560 oh         1 EEQ      -0.626000
     16 O1          -0.3840    -1.8330     1.3790 oh         1 EEQ      -0.696000
     17 H1           4.3820    -0.9340     0.7730 h1         1 EEQ       0.054700
     18 H2           4.1140     0.5860     1.6640 h1         1 EEQ       0.054700
     19 H3           1.9210    -0.6850     1.2730 hn         1 EEQ       0.318500
     20 H4           0.4760     0.1980    -1.1940 h1         1 EEQ       0.124700
     21 H5           0.0930    -2.1160    -0.6160 h2         1 EEQ       0.080700
     22 H6          -2.4740    -0.3690     1.4020 h1         1 EEQ       0.061700
     23 H7          -4.5230     0.5980     0.3910 h1         1 EEQ       0.026200
     24 H8          -4.0280     0.0150    -1.2060 h1         1 EEQ       0.026200
     25 H9          -5.5180    -1.4290    -0.2520 ho         1 EEQ       0.505000
     26 H10         -2.3420     1.9850     0.6920 h1         1 EEQ       0.032700
     27 H11         -2.7380     1.8870    -1.5420 ho         1 EEQ       0.501000
     28 H12         -0.3560     0.9440     1.6700 h1         1 EEQ       0.040700
     29 H13         -0.0410     2.7050    -0.5160 ho         1 EEQ       0.441000
     30 H14         -1.0210    -2.5800     1.3770 ho         1 EEQ       0.463000
@<TRIPOS>BOND
     1     1     2 1   
     2     1     3 1   
     3     1    17 1   
     4     1    18 1   
     5     3     4 2   
     6     3     5 1   
     7     5     6 1   
     8     5    19 1   
     9     6     7 1   
    10     6    14 1   
    11     6    20 1   
    12     7     8 1   
    13     7    16 1   
    14     7    21 1   
    15     8     9 1   
    16     9    10 1   
    17     9    12 1   
    18     9    22 1   
    19    10    11 1   
    20    10    23 1   
    21    10    24 1   
    22    11    25 1   
    23    12    13 1   
    24    12    14 1   
    25    12    26 1   
    26    13    27 1   
    27    14    15 1   
    28    14    28 1   
    29    15    29 1   
    30    16    30 1   
@<TRIPOS>SUBSTRUCTURE
     1 EEQ         1 TEMP              0 ****  ****    0 ROOT
