@<TRIPOS>MOLECULE
EEQ
   30    30     1     0     0
SMALL
bcc


@<TRIPOS>ATOM
      1 CME          4.0710     0.1090     0.6100 c3         1 EEQ       0.084900
      2 F23          5.1750     0.3930    -0.1600 f          1 EEQ      -0.217300
      3 C2N          2.8130     0.2430    -0.2320 c          1 EEQ       0.644100
      4 O2N          2.8470     0.6430    -1.3810 o          1 EEQ      -0.555100
      5 N2           1.7030    -0.1290     0.4250 ns         1 EEQ      -0.568900
      6 C2           0.3680    -0.0040    -0.1020 c6         1 EEQ       0.096700
      7 C1          -0.4000    -1.3140     0.0990 c6         1 EEQ       0.328900
      8 O5          -1.7190    -1.1980    -0.3490 os         1 EEQ      -0.403600
      9 C5          -2.4700    -0.1530     0.2470 c6         1 EEQ       0.113100
     10 C6          -3.8820    -0.2280    -0.2880 c3         1 EEQ       0.144400
     11 O6          -4.4800    -1.4180     0.1650 oh         1 EEQ      -0.585800
     12 C4          -1.8140     1.2030    -0.0210 c6         1 EEQ       0.087100
     13 O4          -1.7480     1.5130    -1.3910 oh         1 EEQ      -0.566800
     14 C3          -0.3880     1.1640     0.5310 c6         1 EEQ       0.140100
     15 O3           0.3320     2.3370     0.2740 oh         1 EEQ      -0.563800
     16 O1          -0.3230    -1.6470     1.4510 oh         1 EEQ      -0.633800
     17 H1           4.1610    -0.9050     1.0060 h1         1 EEQ       0.054700
     18 H2           4.0310     0.8050     1.4510 h1         1 EEQ       0.054700
     19 H3           1.7900    -0.4300     1.3850 hn         1 EEQ       0.318500
     20 H4           0.4550     0.1680    -1.1750 h1         1 EEQ       0.124700
     21 H5           0.0480    -2.0950    -0.5250 h2         1 EEQ       0.080700
     22 H6          -2.5180    -0.2850     1.3370 h1         1 EEQ       0.061700
     23 H7          -4.4210     0.6590     0.0710 h1         1 EEQ       0.026200
     24 H8          -3.8700    -0.1770    -1.3850 h1         1 EEQ       0.026200
     25 H9          -5.3760    -1.4510    -0.1810 ho         1 EEQ       0.406000
     26 H10         -2.3820     1.9660     0.5330 h1         1 EEQ       0.032700
     27 H11         -2.6020     1.8480    -1.6800 ho         1 EEQ       0.402000
     28 H12         -0.4690     0.9850     1.6130 h1         1 EEQ       0.040700
     29 H13         -0.0300     3.0420     0.8210 ho         1 EEQ       0.402000
     30 H14         -0.5570    -2.5750     1.5650 ho         1 EEQ       0.424000
@<TRIPOS>BOND
     1     1     2 1   
     2     1     3 1   
     3     1    17 1   
     4     1    18 1   
     5     3     4 2   
     6     3     5 1   
     7     5     6 1   
     8     5    19 1   
     9     6     7 1   
    10     6    14 1   
    11     6    20 1   
    12     7     8 1   
    13     7    16 1   
    14     7    21 1   
    15     8     9 1   
    16     9    10 1   
    17     9    12 1   
    18     9    22 1   
    19    10    11 1   
    20    10    23 1   
    21    10    24 1   
    22    11    25 1   
    23    12    13 1   
    24    12    14 1   
    25    12    26 1   
    26    13    27 1   
    27    14    15 1   
    28    14    28 1   
    29    15    29 1   
    30    16    30 1   
@<TRIPOS>SUBSTRUCTURE
     1 EEQ         1 TEMP              0 ****  ****    0 ROOT
