@<TRIPOS>MOLECULE
EER
   31    31     1     0     0
SMALL
No Charge or Current Charge


@<TRIPOS>ATOM
      1 N1          30.7750    41.7410    26.0050 n          1 EER      -0.352800
      2 C4          29.8840    42.7890    25.3700 c6         1 EER      -0.052300
      3 C5          29.9320    44.1220    26.1660 c6         1 EER      -0.060400
      4 C6          29.6080    43.9080    27.6600 c6         1 EER      -0.068400
      5 C7          28.4090    42.3610    25.0570 c          1 EER       0.715000
      6 C8          31.9690    41.3050    25.3680 c          1 EER       0.616100
      7 C10         33.1130    39.0980    24.7600 c3         1 EER       0.095600
      8 C1          30.5650    42.8590    28.2640 c6         1 EER      -0.089400
      9 C2          33.9380    40.4780    26.7450 c3         1 EER      -0.083100
     10 C3          30.5200    41.5340    27.4670 c6         1 EER       0.107000
     11 C9          32.7100    40.0540    25.9040 c3         1 EER      -0.133700
     12 O1          27.9310    41.4270    25.6870 o          1 EER      -0.721000
     13 O2          27.9990    42.6320    23.9360 o          1 EER      -0.721000
     14 O3          32.4100    41.9050    24.3930 o          1 EER      -0.635100
     15 H1          30.2900    43.0250    24.3770 h1         1 EER       0.073700
     16 H2          30.9350    44.5620    26.0740 hc         1 EER       0.032700
     17 H3          29.2350    44.8500    25.7280 hc         1 EER       0.032700
     18 H4          29.7000    44.8580    28.2040 hc         1 EER       0.036200
     19 H5          28.5660    43.5770    27.7760 hc         1 EER       0.036200
     20 H7          33.7420    39.6250    24.0310 h1         1 EER       0.053200
     21 H8          30.3020    42.6710    29.3130 hc         1 EER       0.021200
     22 H9          31.5910    43.2510    28.2630 hc         1 EER       0.021200
     23 H10         33.6370    41.1390    27.5670 hc         1 EER       0.032367
     24 H11         34.4340    39.6010    27.1790 hc         1 EER       0.032367
     25 H12         34.6680    41.0140    26.1270 hc         1 EER       0.032367
     26 H13         29.5380    41.0610    27.6030 h1         1 EER       0.045700
     27 H14         31.2550    40.8580    27.9170 h1         1 EER       0.045700
     28 H15         32.0480    39.4970    26.5730 hc         1 EER       0.068700
     29 H17         32.3850    37.6210    22.9990 hs         1 EER       0.173800
     30 S1          31.6630    38.3650    23.8710 sh         1 EER      -0.406800
     31 H6          33.7020    38.2680    25.1720 h1         1 EER       0.053200
@<TRIPOS>BOND
     1     1     2 1   
     2     1     6 1   
     3     1    10 1   
     4     2     3 1   
     5     2     5 1   
     6     2    15 1   
     7     3     4 1   
     8     3    16 1   
     9     3    17 1   
    10     4     8 1   
    11     4    18 1   
    12     4    19 1   
    13     5    12 1   
    14     5    13 1   
    15     6    11 1   
    16     6    14 2   
    17     7    11 1   
    18     7    20 1   
    19     7    30 1   
    20     7    31 1   
    21     8    10 1   
    22     8    21 1   
    23     8    22 1   
    24     9    11 1   
    25     9    23 1   
    26     9    24 1   
    27     9    25 1   
    28    10    26 1   
    29    10    27 1   
    30    11    28 1   
    31    29    30 1   
@<TRIPOS>SUBSTRUCTURE
     1 EER         1 TEMP              0 ****  ****    0 ROOT
