@<TRIPOS>MOLECULE
EER
   31    31     1     0     0
SMALL
abcg2


@<TRIPOS>ATOM
      1 N1          30.8280    41.8040    25.9660 n          1 EER      -0.352800
      2 C4          30.0220    42.8570    25.3570 c6         1 EER      -0.052300
      3 C5          30.0970    44.1230    26.2060 c6         1 EER      -0.060400
      4 C6          29.7000    43.8630    27.6520 c6         1 EER      -0.068400
      5 C7          28.5730    42.3700    25.0520 c          1 EER       0.715000
      6 C8          31.7710    41.1730    25.2430 c          1 EER       0.616100
      7 C10         33.1360    39.0830    24.8960 c3         1 EER       0.095600
      8 C1          30.5380    42.7280    28.2240 c6         1 EER      -0.089400
      9 C2          33.7740    40.7470    26.6490 c3         1 EER      -0.083100
     10 C3          30.4560    41.4930    27.3360 c6         1 EER       0.107000
     11 C9          32.6050    40.0810    25.9160 c3         1 EER      -0.133700
     12 O1          28.4180    41.1470    24.8870 o          1 EER      -0.721000
     13 O2          27.7100    43.2610    24.9470 o          1 EER      -0.721000
     14 O3          32.0310    41.4900    24.0860 o          1 EER      -0.635100
     15 H1          30.4690    43.0780    24.3870 h1         1 EER       0.073700
     16 H2          31.1230    44.5040    26.1800 hc         1 EER       0.032700
     17 H3          29.4640    44.8890    25.7590 hc         1 EER       0.032700
     18 H4          29.8230    44.7670    28.2530 hc         1 EER       0.036200
     19 H5          28.6400    43.5960    27.7010 hc         1 EER       0.036200
     20 H7          33.6620    39.5900    24.0900 h1         1 EER       0.053200
     21 H8          30.2060    42.4620    29.2300 hc         1 EER       0.021200
     22 H9          31.5840    43.0430    28.3060 hc         1 EER       0.021200
     23 H10         33.4250    41.4250    27.4280 hc         1 EER       0.032367
     24 H11         34.4070    39.9960    27.1230 hc         1 EER       0.032367
     25 H12         34.3900    41.3200    25.9560 hc         1 EER       0.032367
     26 H13         29.4340    41.1020    27.3430 h1         1 EER       0.045700
     27 H14         31.0910    40.7120    27.7430 h1         1 EER       0.045700
     28 H15         32.0170    39.5180    26.6420 hc         1 EER       0.068700
     29 H17         32.4740    37.3280    23.3940 hs         1 EER       0.173800
     30 S1          31.7550    38.1020    24.2150 sh         1 EER      -0.406800
     31 H6          33.8320    38.4060    25.3920 h1         1 EER       0.053200
@<TRIPOS>BOND
     1     1     2 1   
     2     1     6 1   
     3     1    10 1   
     4     2     3 1   
     5     2     5 1   
     6     2    15 1   
     7     3     4 1   
     8     3    16 1   
     9     3    17 1   
    10     4     8 1   
    11     4    18 1   
    12     4    19 1   
    13     5    12 1   
    14     5    13 1   
    15     6    11 1   
    16     6    14 2   
    17     7    11 1   
    18     7    20 1   
    19     7    30 1   
    20     7    31 1   
    21     8    10 1   
    22     8    21 1   
    23     8    22 1   
    24     9    11 1   
    25     9    23 1   
    26     9    24 1   
    27     9    25 1   
    28    10    26 1   
    29    10    27 1   
    30    11    28 1   
    31    29    30 1   
@<TRIPOS>SUBSTRUCTURE
     1 EER         1 TEMP              0 ****  ****    0 ROOT
