@<TRIPOS>MOLECULE
EES
   27    29     1     0     0
SMALL
No Charge or Current Charge


@<TRIPOS>ATOM
      1 Cl1          0.1270    -2.3660     0.7140 cl         1 EES      -0.110000
      2 CAP          0.5630    -0.7550     0.2170 cc         1 EES       0.055900
      3 CAR          1.8790    -0.2460     0.0680 ca         1 EES      -0.090000
      4 CAJ          3.1310    -0.8610     0.1980 ca         1 EES      -0.107000
      5 CAN          4.2740    -0.0670    -0.0200 ca         1 EES       0.115100
      6 OAC          5.5130    -0.6240     0.0960 oh         1 EES      -0.537100
      7 CAH          4.1380     1.2990    -0.3560 ca         1 EES      -0.168000
      8 CAI          2.8580     1.8850    -0.4770 ca         1 EES      -0.041000
      9 CAQ          1.7230     1.0880    -0.2580 ca         1 EES      -0.093000
     10 NAL          0.3830     1.5020    -0.3350 nc         1 EES      -0.255400
     11 NAS         -0.2830     0.3160    -0.0210 na         1 EES       0.250700
     12 CAO         -1.6780     0.2600    -0.0090 ca         1 EES      -0.052200
     13 CAF         -2.3630    -0.6810    -0.8060 ca         1 EES      -0.045000
     14 CAD         -3.7680    -0.7300    -0.7900 ca         1 EES      -0.174500
     15 CAG         -2.4150     1.1540     0.7940 ca         1 EES      -0.045000
     16 CAE         -3.8210     1.1020     0.8070 ca         1 EES      -0.174500
     17 CAM         -4.4950     0.1590     0.0150 ca         1 EES       0.156100
     18 OAB         -5.8560     0.1010     0.0210 oh         1 EES      -0.527100
     19 HAJ          3.2190    -1.9130     0.4560 ha         1 EES       0.137000
     20 HOAC         6.1840     0.0690    -0.0880 ho         1 EES       0.463000
     21 HAH          5.0200     1.9120    -0.5240 ha         1 EES       0.111000
     22 HAI          2.7530     2.9370    -0.7350 ha         1 EES       0.129000
     23 HAF         -1.8090    -1.3710    -1.4400 ha         1 EES       0.135500
     24 HAD         -4.2930    -1.4570    -1.4050 ha         1 EES       0.129500
     25 HAG         -1.8990     1.8880     1.4110 ha         1 EES       0.135500
     26 HAE         -4.3760     1.7960     1.4330 ha         1 EES       0.129500
     27 HOAB        -6.1950     0.7890     0.6330 ho         1 EES       0.470000
@<TRIPOS>BOND
     1     1     2 1   
     2     2     3 2   
     3     2    11 1   
     4     3     4 ar  
     5     3     9 ar  
     6     4     5 ar  
     7     4    19 1   
     8     5     6 1   
     9     5     7 ar  
    10     6    20 1   
    11     7     8 ar  
    12     7    21 1   
    13     8     9 ar  
    14     8    22 1   
    15     9    10 2   
    16    10    11 1   
    17    11    12 1   
    18    12    13 ar  
    19    12    15 ar  
    20    13    14 ar  
    21    13    23 1   
    22    14    17 ar  
    23    14    24 1   
    24    15    16 ar  
    25    15    25 1   
    26    16    17 ar  
    27    16    26 1   
    28    17    18 1   
    29    18    27 1   
@<TRIPOS>SUBSTRUCTURE
     1 EES         1 TEMP              0 ****  ****    0 ROOT
