@<TRIPOS>MOLECULE
EES
   27    29     1     0     0
SMALL
bcc


@<TRIPOS>ATOM
      1 CL1          0.0670    -2.3540     0.6540 cl         1 EES      -0.034400
      2 CAP          0.5840    -0.8050     0.1950 cc         1 EES      -0.019700
      3 CAR          1.8740    -0.3200     0.0680 ca         1 EES      -0.090000
      4 CAJ          3.1650    -0.8720     0.2070 ca         1 EES      -0.125000
      5 CAN          4.2290    -0.0350     0.0010 ca         1 EES       0.115100
      6 OAC          5.4780    -0.5320     0.1270 oh         1 EES      -0.498100
      7 CAH          4.0350     1.3400    -0.3410 ca         1 EES      -0.186000
      8 CAI          2.7920     1.8830    -0.4760 ca         1 EES      -0.059000
      9 CAQ          1.6740     1.0440    -0.2670 ca         1 EES      -0.093000
     10 NAL          0.3780     1.3540    -0.3400 nc         1 EES      -0.255400
     11 NAS         -0.2570     0.2200    -0.0590 na         1 EES       0.250700
     12 CAO         -1.6730     0.2020    -0.0250 ca         1 EES      -0.052200
     13 CAF         -2.3860    -0.7010    -0.8030 ca         1 EES      -0.063000
     14 CAD         -3.7680    -0.7020    -0.7680 ca         1 EES      -0.192500
     15 CAG         -2.3440     1.1140     0.7760 ca         1 EES      -0.063000
     16 CAE         -3.7270     1.1230     0.8050 ca         1 EES      -0.192500
     17 CAM         -4.4490     0.2110     0.0360 ca         1 EES       0.156100
     18 OAB         -5.7910     0.1710     0.0270 oh         1 EES      -0.488100
     19 HAJ          3.3120    -1.9130     0.4640 ha         1 EES       0.155000
     20 HOAC         6.1340     0.1540    -0.0350 ho         1 EES       0.424000
     21 HAH          4.9070     1.9650    -0.4960 ha         1 EES       0.129000
     22 HAI          2.6650     2.9260    -0.7330 ha         1 EES       0.147000
     23 HAF         -1.8700    -1.3980    -1.4510 ha         1 EES       0.153500
     24 HAD         -4.3260    -1.4040    -1.3750 ha         1 EES       0.147500
     25 HAG         -1.7880     1.8200     1.3790 ha         1 EES       0.153500
     26 HAE         -4.2430     1.8400     1.4330 ha         1 EES       0.147500
     27 HOAB        -6.1580     0.8570     0.5960 ho         1 EES       0.431000
@<TRIPOS>BOND
     1     1     2 1   
     2     2     3 2   
     3     2    11 1   
     4     3     4 ar  
     5     3     9 ar  
     6     4     5 ar  
     7     4    19 1   
     8     5     6 1   
     9     5     7 ar  
    10     6    20 1   
    11     7     8 ar  
    12     7    21 1   
    13     8     9 ar  
    14     8    22 1   
    15     9    10 2   
    16    10    11 1   
    17    11    12 1   
    18    12    13 ar  
    19    12    15 ar  
    20    13    14 ar  
    21    13    23 1   
    22    14    17 ar  
    23    14    24 1   
    24    15    16 ar  
    25    15    25 1   
    26    16    17 ar  
    27    16    26 1   
    28    17    18 1   
    29    18    27 1   
@<TRIPOS>SUBSTRUCTURE
     1 EES         1 TEMP              0 ****  ****    0 ROOT
