@<TRIPOS>MOLECULE
EET
   57    56     1     0     0
SMALL
abcg2


@<TRIPOS>ATOM
      1 O4          10.7700    -0.0970     1.4150 o          1 EET      -0.742000
      2 C20          9.7630    -0.6310     0.9020 c          1 EET       0.717000
      3 O3           9.5430    -1.8550     0.8150 o          1 EET      -0.742000
      4 C19          8.7030     0.3350     0.3420 c3         1 EET      -0.206400
      5 C18          7.5250    -0.3110    -0.3680 c3         1 EET      -0.049400
      6 C17          6.5140     0.7200    -0.8770 c3         1 EET      -0.060200
      7 C16          5.3770     0.0770    -1.6060 c2         1 EET      -0.175200
      8 C15          4.0840     0.0880    -1.2840 c2         1 EET      -0.258200
      9 C14          3.4360     0.7920    -0.1260 c3         1 EET      -0.009000
     10 C13          2.5440     1.8960    -0.6150 c2         1 EET      -0.187200
     11 C12          1.2160     1.9640    -0.5360 c2         1 EET      -0.243200
     12 C11          0.2850     0.9760     0.1040 c3         1 EET      -0.010000
     13 C10         -0.3770     1.5890     1.3060 c2         1 EET      -0.195200
     14 C9          -1.6600     1.9230     1.4450 c2         1 EET      -0.235200
     15 C8          -2.7570     1.7300     0.4460 c3         1 EET      -0.068200
     16 C7          -3.8970     0.8650     0.9910 c3         1 EET       0.141300
     17 O2          -4.5150     1.4640     2.1130 oh         1 EET      -0.659000
     18 C6          -4.9090     0.4960    -0.1000 c3         1 EET       0.136300
     19 C5          -5.9630    -0.4860     0.3990 c3         1 EET      -0.106400
     20 C4          -6.8550    -1.0380    -0.7060 c3         1 EET      -0.074400
     21 C3          -7.8950    -2.0220    -0.1860 c3         1 EET      -0.076400
     22 C2          -8.7370    -2.6470    -1.2910 c3         1 EET      -0.075400
     23 C1          -9.7840    -3.6170    -0.7600 c3         1 EET      -0.088100
     24 O1          -5.4910     1.6470    -0.6860 oh         1 EET      -0.661000
     25 H2           8.3350     0.9490     1.1730 hc         1 EET       0.015200
     26 H3           9.2020     1.0410    -0.3300 hc         1 EET       0.015200
     27 H4           7.8810    -0.9100    -1.2110 hc         1 EET       0.041200
     28 H5           7.0180    -1.0060     0.3050 hc         1 EET       0.041200
     29 H6           6.1570     1.3250    -0.0400 hc         1 EET       0.034200
     30 H7           7.0250     1.4110    -1.5570 hc         1 EET       0.034200
     31 H8           5.6620    -0.4830    -2.4940 ha         1 EET       0.160000
     32 H9           3.3950    -0.4480    -1.9310 ha         1 EET       0.153000
     33 H10          2.8680     0.0680     0.4630 hc         1 EET       0.052700
     34 H11          4.1900     1.2110     0.5440 hc         1 EET       0.052700
     35 H12          3.0620     2.7140    -1.1090 ha         1 EET       0.168000
     36 H14          0.7300     2.8410    -0.9550 ha         1 EET       0.160000
     37 H16         -0.4590     0.6570    -0.6290 hc         1 EET       0.049200
     38 H17          0.8230     0.0770     0.4110 hc         1 EET       0.049200
     39 H18          0.2940     1.8020     2.1330 ha         1 EET       0.173000
     40 H19         -1.9570     2.3800     2.3840 ha         1 EET       0.170000
     41 H20         -3.1610     2.7070     0.1530 hc         1 EET       0.054700
     42 H21         -2.3760     1.2760    -0.4710 hc         1 EET       0.054700
     43 H22         -3.4670    -0.0740     1.3560 h1         1 EET       0.078700
     44 H23         -4.7620     2.3660     1.8800 ho         1 EET       0.437000
     45 H24         -4.3410     0.0100    -0.9030 h1         1 EET       0.074700
     46 H25         -5.4520    -1.3180     0.8950 hc         1 EET       0.050200
     47 H26         -6.5770    -0.0070     1.1700 hc         1 EET       0.050200
     48 H27         -7.3600    -0.2180    -1.2250 hc         1 EET       0.042200
     49 H28         -6.2290    -1.5350    -1.4560 hc         1 EET       0.042200
     50 H29         -7.3940    -2.8150     0.3790 hc         1 EET       0.037200
     51 H30         -8.5530    -1.5130     0.5280 hc         1 EET       0.037200
     52 H31         -9.2280    -1.8560    -1.8660 hc         1 EET       0.037200
     53 H32         -8.0780    -3.1670    -1.9930 hc         1 EET       0.037200
     54 H33         -9.3210    -4.4250    -0.1910 hc         1 EET       0.030367
     55 H34        -10.4900    -3.1120    -0.0980 hc         1 EET       0.030367
     56 H35        -10.3580    -4.0700    -1.5690 hc         1 EET       0.030367
     57 H36         -6.1930     1.9640    -0.1090 ho         1 EET       0.437000
@<TRIPOS>BOND
     1     1     2 1   
     2     2     3 1   
     3     2     4 1   
     4     4     5 1   
     5     4    25 1   
     6     4    26 1   
     7     5     6 1   
     8     5    27 1   
     9     5    28 1   
    10     6     7 1   
    11     6    29 1   
    12     6    30 1   
    13     7     8 2   
    14     7    31 1   
    15     8     9 1   
    16     8    32 1   
    17     9    10 1   
    18     9    33 1   
    19     9    34 1   
    20    10    11 2   
    21    10    35 1   
    22    11    12 1   
    23    11    36 1   
    24    12    13 1   
    25    12    37 1   
    26    12    38 1   
    27    13    14 2   
    28    13    39 1   
    29    14    15 1   
    30    14    40 1   
    31    15    16 1   
    32    15    41 1   
    33    15    42 1   
    34    16    17 1   
    35    16    18 1   
    36    16    43 1   
    37    17    44 1   
    38    18    19 1   
    39    18    24 1   
    40    18    45 1   
    41    19    20 1   
    42    19    46 1   
    43    19    47 1   
    44    20    21 1   
    45    20    48 1   
    46    20    49 1   
    47    21    22 1   
    48    21    50 1   
    49    21    51 1   
    50    22    23 1   
    51    22    52 1   
    52    22    53 1   
    53    23    54 1   
    54    23    55 1   
    55    23    56 1   
    56    24    57 1   
@<TRIPOS>SUBSTRUCTURE
     1 EET         1 TEMP              0 ****  ****    0 ROOT
