@<TRIPOS>MOLECULE
EET
   57    56     1     0     0
SMALL
No Charge or Current Charge


@<TRIPOS>ATOM
      1 O4           7.7630    -3.4350     0.8900 o          1 EET      -0.742000
      2 C20          7.0630    -2.5550     1.3680 c          1 EET       0.717000
      3 O3           6.3210    -2.7270     2.3230 o          1 EET      -0.742000
      4 C19          7.0730    -1.1710     0.6950 c3         1 EET      -0.206400
      5 C18          5.9980    -1.1120    -0.4180 c3         1 EET      -0.049400
      6 C17          5.9500     0.2480    -1.1480 c3         1 EET      -0.060200
      7 C16          4.8940     0.2780    -2.2370 c2         1 EET      -0.175200
      8 C15          3.6060     0.6440    -2.1120 c2         1 EET      -0.258200
      9 C14          2.8860     1.0820    -0.8490 c3         1 EET      -0.009000
     10 C13          2.3240     2.4810    -1.0090 c2         1 EET      -0.187200
     11 C12          1.1720     2.9540    -0.5020 c2         1 EET      -0.243200
     12 C11          0.1800     2.2040     0.3660 c3         1 EET      -0.010000
     13 C10         -0.4700     3.1380     1.3710 c2         1 EET      -0.195200
     14 C9          -1.7780     3.4370     1.4860 c2         1 EET      -0.235200
     15 C8          -2.9170     2.9380     0.6100 c3         1 EET      -0.068200
     16 C7          -3.5640     1.6330     1.1420 c3         1 EET       0.141300
     17 O2          -4.2190     1.9030     2.3910 oh         1 EET      -0.659000
     18 C6          -4.6030     1.0200     0.1500 c3         1 EET       0.136300
     19 C5          -5.0530    -0.4080     0.5520 c3         1 EET      -0.106400
     20 C4          -5.9490    -1.1130    -0.4960 c3         1 EET      -0.074400
     21 C3          -6.3180    -2.5590    -0.0960 c3         1 EET      -0.076400
     22 C2          -7.2100    -3.2660    -1.1390 c3         1 EET      -0.075400
     23 C1          -7.5780    -4.7080    -0.7410 c3         1 EET      -0.088100
     24 O1          -5.7580     1.8790     0.0760 oh         1 EET      -0.661000
     25 H2           6.8020    -0.3910     1.4170 hc         1 EET       0.015200
     26 H3           8.0330    -0.9950     0.1940 hc         1 EET       0.015200
     27 H4           6.1920    -1.9050    -1.1510 hc         1 EET       0.041200
     28 H5           5.0130    -1.3170     0.0200 hc         1 EET       0.041200
     29 H6           5.7740     1.0440    -0.4160 hc         1 EET       0.034200
     30 H7           6.9330     0.4570    -1.5870 hc         1 EET       0.034200
     31 H8           5.2700    -0.0270    -3.2160 ha         1 EET       0.160000
     32 H9           2.9590     0.6220    -2.9910 ha         1 EET       0.153000
     33 H10          2.0860     0.3660    -0.6300 hc         1 EET       0.052700
     34 H11          3.5540     1.0560     0.0200 hc         1 EET       0.052700
     35 H12          2.9530     3.1390    -1.6140 ha         1 EET       0.168000
     36 H14          0.8830     3.9870    -0.7070 ha         1 EET       0.160000
     37 H16         -0.5680     1.7200    -0.2710 hc         1 EET       0.049200
     38 H17          0.6780     1.3910     0.9090 hc         1 EET       0.049200
     39 H18          0.2420     3.5770     2.0730 ha         1 EET       0.173000
     40 H19         -2.1030     4.1170     2.2760 ha         1 EET       0.170000
     41 H20         -3.6830     3.7180     0.5190 hc         1 EET       0.054700
     42 H21         -2.5590     2.7630    -0.4110 hc         1 EET       0.054700
     43 H22         -2.7580     0.8990     1.2860 h1         1 EET       0.078700
     44 H23         -5.1340     2.1490     2.1250 ho         1 EET       0.437000
     45 H24         -4.1190     0.9520    -0.8360 h1         1 EET       0.074700
     46 H25         -4.1580    -1.0220     0.7130 hc         1 EET       0.050200
     47 H26         -5.5820    -0.3720     1.5130 hc         1 EET       0.050200
     48 H27         -6.8730    -0.5390    -0.6380 hc         1 EET       0.042200
     49 H28         -5.4280    -1.1300    -1.4620 hc         1 EET       0.042200
     50 H29         -5.3980    -3.1410     0.0430 hc         1 EET       0.037200
     51 H30         -6.8370    -2.5440     0.8710 hc         1 EET       0.037200
     52 H31         -8.1330    -2.6890    -1.2800 hc         1 EET       0.037200
     53 H32         -6.6940    -3.2850    -2.1070 hc         1 EET       0.037200
     54 H33         -6.6760    -5.3210    -0.6270 hc         1 EET       0.030367
     55 H34         -8.1280    -4.7200     0.2080 hc         1 EET       0.030367
     56 H35         -8.2100    -5.1680    -1.5100 hc         1 EET       0.030367
     57 H36         -6.3380     1.5230    -0.6320 ho         1 EET       0.437000
@<TRIPOS>BOND
     1     1     2 1   
     2     2     3 1   
     3     2     4 1   
     4     4     5 1   
     5     4    25 1   
     6     4    26 1   
     7     5     6 1   
     8     5    27 1   
     9     5    28 1   
    10     6     7 1   
    11     6    29 1   
    12     6    30 1   
    13     7     8 2   
    14     7    31 1   
    15     8     9 1   
    16     8    32 1   
    17     9    10 1   
    18     9    33 1   
    19     9    34 1   
    20    10    11 2   
    21    10    35 1   
    22    11    12 1   
    23    11    36 1   
    24    12    13 1   
    25    12    37 1   
    26    12    38 1   
    27    13    14 2   
    28    13    39 1   
    29    14    15 1   
    30    14    40 1   
    31    15    16 1   
    32    15    41 1   
    33    15    42 1   
    34    16    17 1   
    35    16    18 1   
    36    16    43 1   
    37    17    44 1   
    38    18    19 1   
    39    18    24 1   
    40    18    45 1   
    41    19    20 1   
    42    19    46 1   
    43    19    47 1   
    44    20    21 1   
    45    20    48 1   
    46    20    49 1   
    47    21    22 1   
    48    21    50 1   
    49    21    51 1   
    50    22    23 1   
    51    22    52 1   
    52    22    53 1   
    53    23    54 1   
    54    23    55 1   
    55    23    56 1   
    56    24    57 1   
@<TRIPOS>SUBSTRUCTURE
     1 EET         1 TEMP              0 ****  ****    0 ROOT
