@<TRIPOS>MOLECULE
EEU
   85    89     1     0     0
SMALL
bcc


@<TRIPOS>ATOM
      1 C1         -13.3220     2.1350   -26.1460 cg         1 EEU       0.046000
      2 C2         -12.8390     1.8660   -25.0770 c1         1 EEU      -0.274100
      3 C3         -12.3540     1.5100   -23.7410 c5         1 EEU       0.281900
      4 O1         -11.8360     2.7000   -23.1990 oh         1 EEU      -0.560800
      5 C4         -11.3120     0.3540   -23.8360 c5         1 EEU      -0.104400
      6 C5         -12.0970    -0.9630   -23.6600 c5         1 EEU      -0.061400
      7 C6         -13.5600    -0.5230   -23.6030 c5         1 EEU      -0.070700
      8 C7         -14.6010    -1.4480   -23.0010 c6         1 EEU      -0.041700
      9 C8         -14.6340    -2.8220   -23.6520 c6         1 EEU      -0.074400
     10 C9         -15.5860    -3.7280   -22.8890 c6         1 EEU      -0.024100
     11 C10        -13.5150     0.8530   -22.9290 c5         1 EEU      -0.059000
     12 C11        -13.0910     0.7800   -21.4570 c3         1 EEU      -0.084100
     13 C12        -14.8860     1.5110   -23.0290 c6         1 EEU      -0.065400
     14 C13        -15.9910     0.6000   -22.4840 c6         1 EEU      -0.062400
     15 C14        -15.9760    -0.7800   -23.1520 c6         1 EEU      -0.022400
     16 C15        -17.1010    -1.6980   -22.7070 ca         1 EEU      -0.064300
     17 C16        -18.3760    -1.1940   -22.4380 ca         1 EEU      -0.078000
     18 C17        -16.9190    -3.0820   -22.6130 ca         1 EEU      -0.048300
     19 C18        -17.9840    -3.9030   -22.2450 ca         1 EEU      -0.234000
     20 C19        -19.2400    -3.3800   -21.9710 ca         1 EEU       0.104100
     21 O2         -20.2930    -4.1480   -21.6160 oh         1 EEU      -0.510100
     22 C20        -19.4350    -2.0060   -22.0730 ca         1 EEU      -0.161000
     23 C21        -14.0310     2.4290   -27.3450 ca         1 EEU      -0.005000
     24 C22        -15.3030     1.8930   -27.5370 ca         1 EEU      -0.225800
     25 C23        -13.5160     3.2680   -28.3300 ca         1 EEU      -0.225800
     26 C24        -16.0250     2.2690   -28.6590 ca         1 EEU       0.458100
     27 C25        -14.2910     3.5490   -29.4480 ca         1 EEU       0.458100
     28 N1         -15.5230     3.0700   -29.5940 nb         1 EEU      -0.547000
     29 C26        -17.4360     1.7900   -28.8740 c3         1 EEU       0.126000
     30 C27        -13.7580     4.4270   -30.5500 c3         1 EEU       0.126000
     31 N2         -18.4250     2.7760   -28.4730 n3         1 EEU      -0.629600
     32 N3         -13.7880     3.7810   -31.8470 n3         1 EEU      -0.629600
     33 O3         -17.0040     4.7210   -26.9060 o          1 EEU      -0.856050
     34 O4         -20.3190     4.8140   -28.7860 o          1 EEU      -0.856050
     35 O5         -15.6510     5.7120   -32.7230 o          1 EEU      -0.856050
     36 O6         -14.1250     1.7540   -33.7610 o          1 EEU      -0.856050
     37 C28        -18.5260     2.8700   -27.0300 c3         1 EEU       0.044050
     38 C29        -19.7080     2.5080   -29.0890 c3         1 EEU       0.044050
     39 C30        -13.4590     4.7290   -32.8920 c3         1 EEU       0.044050
     40 C31        -12.9010     2.6360   -31.8850 c3         1 EEU       0.044050
     41 C32        -17.4860     3.7500   -26.2970 c          1 EEU       0.925850
     42 C33        -20.7260     3.6720   -29.0620 c          1 EEU       0.925850
     43 C34        -14.5120     5.8120   -33.2150 c          1 EEU       0.925850
     44 C35        -13.1020     1.6500   -33.0600 c          1 EEU       0.925850
     45 O7         -17.2850     3.4380   -25.1020 o          1 EEU      -0.856050
     46 O8         -21.8900     3.3420   -29.3720 o          1 EEU      -0.856050
     47 O9         -14.1070     6.6950   -34.0000 o          1 EEU      -0.856050
     48 O10        -12.2010     0.7910   -33.1660 o          1 EEU      -0.856050
     49 H1         -11.3820     2.4880   -22.3760 ho         1 EEU       0.370000
     50 H2         -10.5710     0.4820   -23.0430 hc         1 EEU       0.035200
     51 H3         -10.7630     0.3940   -24.7770 hc         1 EEU       0.035200
     52 H4         -11.9120    -1.6630   -24.4740 hc         1 EEU       0.023700
     53 H5         -11.8010    -1.4670   -22.7360 hc         1 EEU       0.023700
     54 H6         -13.8790    -0.3530   -24.6420 hc         1 EEU       0.089700
     55 H7         -14.3930    -1.5910   -21.9310 hc         1 EEU       0.028700
     56 H8         -13.6390    -3.2720   -23.6720 hc         1 EEU       0.045700
     57 H9         -14.9550    -2.7220   -24.6950 hc         1 EEU       0.045700
     58 H10        -15.7390    -4.6680   -23.4250 hc         1 EEU       0.027700
     59 H11        -15.1240    -4.0020   -21.9340 hc         1 EEU       0.027700
     60 H12        -12.0970     0.3550   -21.3070 hc         1 EEU       0.018033
     61 H13        -13.0970     1.7750   -21.0080 hc         1 EEU       0.018033
     62 H14        -13.7790     0.1730   -20.8710 hc         1 EEU       0.018033
     63 H15        -14.8970     2.4650   -22.4940 hc         1 EEU       0.092700
     64 H16        -15.1180     1.7360   -24.0730 hc         1 EEU       0.092700
     65 H17        -16.9450     1.0990   -22.6610 hc         1 EEU       0.039200
     66 H18        -15.9050     0.4800   -21.4000 hc         1 EEU       0.039200
     67 H19        -16.1120    -0.6070   -24.2310 hc         1 EEU       0.095700
     68 H20        -18.5610    -0.1310   -22.5200 ha         1 EEU       0.164000
     69 H21        -17.8220    -4.9760   -22.1800 ha         1 EEU       0.105000
     70 H22        -20.0330    -5.0750   -21.5840 ho         1 EEU       0.404000
     71 H23        -20.4100    -1.5790   -21.8720 ha         1 EEU       0.140000
     72 H24        -15.7330     1.2230   -26.8040 ha         1 EEU       0.115500
     73 H25        -12.5230     3.6880   -28.2310 ha         1 EEU       0.115500
     74 H26        -17.5810     0.8250   -28.3580 h1         1 EEU       0.019700
     75 H27        -17.5550     1.5960   -29.9430 h1         1 EEU       0.019700
     76 H28        -12.7420     4.7650   -30.2770 h1         1 EEU       0.019700
     77 H29        -14.3810     5.3220   -30.5980 h1         1 EEU       0.019700
     78 H34        -19.4940     3.3180   -26.7870 h1         1 EEU      -0.006550
     79 H35        -18.5410     1.8700   -26.5650 h1         1 EEU      -0.006550
     80 H36        -20.1970     1.6090   -28.6720 h1         1 EEU      -0.006550
     81 H37        -19.5370     2.2780   -30.1470 h1         1 EEU      -0.006550
     82 H38        -13.3030     4.1690   -33.8170 h1         1 EEU      -0.006550
     83 H39        -12.4950     5.2320   -32.6890 h1         1 EEU      -0.006550
     84 H40        -13.0500     2.0440   -30.9750 h1         1 EEU      -0.006550
     85 H41        -11.8390     2.9380   -31.8580 h1         1 EEU      -0.006550
@<TRIPOS>BOND
     1     1     2 3   
     2     1    23 1   
     3     2     3 1   
     4     3     4 1   
     5     3     5 1   
     6     3    11 1   
     7     4    49 1   
     8     5     6 1   
     9     5    50 1   
    10     5    51 1   
    11     6     7 1   
    12     6    52 1   
    13     6    53 1   
    14     7     8 1   
    15     7    11 1   
    16     7    54 1   
    17     8     9 1   
    18     8    15 1   
    19     8    55 1   
    20     9    10 1   
    21     9    56 1   
    22     9    57 1   
    23    10    18 1   
    24    10    58 1   
    25    10    59 1   
    26    11    12 1   
    27    11    13 1   
    28    12    60 1   
    29    12    61 1   
    30    12    62 1   
    31    13    14 1   
    32    13    63 1   
    33    13    64 1   
    34    14    15 1   
    35    14    65 1   
    36    14    66 1   
    37    15    16 1   
    38    15    67 1   
    39    16    17 ar  
    40    16    18 ar  
    41    17    22 ar  
    42    17    68 1   
    43    18    19 ar  
    44    19    20 ar  
    45    19    69 1   
    46    20    21 1   
    47    20    22 ar  
    48    21    70 1   
    49    22    71 1   
    50    23    24 ar  
    51    23    25 ar  
    52    24    26 ar  
    53    24    72 1   
    54    25    27 ar  
    55    25    73 1   
    56    26    28 ar  
    57    26    29 1   
    58    27    28 ar  
    59    27    30 1   
    60    29    31 1   
    61    29    74 1   
    62    29    75 1   
    63    30    32 1   
    64    30    76 1   
    65    30    77 1   
    66    31    37 1   
    67    31    38 1   
    68    32    39 1   
    69    32    40 1   
    70    33    41 1   
    71    34    42 1   
    72    35    43 1   
    73    36    44 1   
    74    37    41 1   
    75    37    78 1   
    76    37    79 1   
    77    38    42 1   
    78    38    80 1   
    79    38    81 1   
    80    39    43 1   
    81    39    82 1   
    82    39    83 1   
    83    40    44 1   
    84    40    84 1   
    85    40    85 1   
    86    41    45 1   
    87    42    46 1   
    88    43    47 1   
    89    44    48 1   
@<TRIPOS>SUBSTRUCTURE
     1 EEU         1 TEMP              0 ****  ****    0 ROOT
