@<TRIPOS>MOLECULE
EEU
   85    89     1     0     0
SMALL
No Charge or Current Charge


@<TRIPOS>ATOM
      1 C1         -13.8040     2.2330   -26.2550 cg         1 EEU       0.046000
      2 C2         -13.2120     1.8900   -25.2520 c1         1 EEU      -0.274100
      3 C3         -12.5280     1.4210   -24.0240 c5         1 EEU       0.305100
      4 O1         -11.9200     2.5790   -23.4730 oh         1 EEU      -0.623000
      5 C4         -11.4560     0.3140   -24.3570 c5         1 EEU      -0.104400
      6 C5         -12.1370    -1.0660   -24.0370 c5         1 EEU      -0.061400
      7 C6         -13.6140    -0.6870   -23.7360 c5         1 EEU      -0.070700
      8 C7         -14.5020    -1.7070   -22.9740 c6         1 EEU      -0.041700
      9 C8         -14.6540    -3.0570   -23.7080 c6         1 EEU      -0.074400
     10 C9         -15.4410    -4.0580   -22.8300 c6         1 EEU      -0.024100
     11 C10        -13.4560     0.6720   -22.9760 c5         1 EEU      -0.059000
     12 C11        -12.7580     0.5560   -21.5670 c3         1 EEU      -0.084100
     13 C12        -14.8800     1.2800   -22.7360 c6         1 EEU      -0.065400
     14 C13        -15.8360     0.2850   -22.0060 c6         1 EEU      -0.062400
     15 C14        -15.9450    -1.0920   -22.7470 c6         1 EEU      -0.022400
     16 C15        -16.9730    -2.0960   -22.1190 ca         1 EEU      -0.064300
     17 C16        -18.1800    -1.6490   -21.5320 ca         1 EEU      -0.060000
     18 C17        -16.7190    -3.4910   -22.1900 ca         1 EEU      -0.048300
     19 C18        -17.6470    -4.4000   -21.6430 ca         1 EEU      -0.216000
     20 C19        -18.8280    -3.9400   -21.0480 ca         1 EEU       0.104100
     21 O2         -19.7170    -4.8290   -20.5260 oh         1 EEU      -0.549100
     22 C20        -19.0970    -2.5680   -20.9960 ca         1 EEU      -0.143000
     23 C21        -14.5170     2.6210   -27.4370 ca         1 EEU      -0.005000
     24 C22        -15.8700     2.2890   -27.6010 ca         1 EEU      -0.142500
     25 C23        -13.8810     3.3370   -28.4620 ca         1 EEU      -0.142500
     26 C24        -16.5420     2.6920   -28.7710 ca         1 EEU       0.392800
     27 C25        -14.6110     3.6840   -29.6150 ca         1 EEU       0.392800
     28 N1         -15.9190     3.3660   -29.7700 nb         1 EEU      -0.547000
     29 C26        -18.0200     2.3180   -28.9910 c3         1 EEU       0.126000
     30 C27        -13.9350     4.4630   -30.7600 c3         1 EEU       0.126000
     31 N2         -19.0250     3.4290   -28.9590 n3         1 EEU      -0.629600
     32 N3         -13.3660     3.6470   -31.8780 n3         1 EEU      -0.629600
     33 O3         -17.5420     5.8110   -27.4630 o          1 EEU      -0.750750
     34 O4         -21.3460     4.8660   -30.7320 o          1 EEU      -0.750750
     35 O5         -14.5970     5.1300   -34.5340 o          1 EEU      -0.750750
     36 O6         -12.4300     0.6810   -32.8490 o          1 EEU      -0.750750
     37 C28        -19.2010     4.0560   -27.6030 c3         1 EEU       0.044050
     38 C29        -20.3330     3.0060   -29.5650 c3         1 EEU       0.044050
     39 C30        -12.8410     4.4970   -33.0000 c3         1 EEU       0.044050
     40 C31        -12.3660     2.6250   -31.4140 c3         1 EEU       0.044050
     41 C32        -17.9950     4.8080   -26.9240 c          1 EEU       0.715250
     42 C33        -21.4540     4.0920   -29.7880 c          1 EEU       0.715250
     43 C34        -13.8120     5.5320   -33.6840 c          1 EEU       0.715250
     44 C35        -11.7530     1.6300   -32.4700 c          1 EEU       0.715250
     45 O7         -17.5810     4.3900   -25.8490 o          1 EEU      -0.750750
     46 O8         -22.4210     4.1000   -29.0340 o          1 EEU      -0.750750
     47 O9         -13.7280     6.7130   -33.3660 o          1 EEU      -0.750750
     48 O10        -10.6020     1.8140   -32.8520 o          1 EEU      -0.750750
     49 H1         -11.5540     2.2980   -22.6110 ho         1 EEU       0.409000
     50 H2         -10.5510     0.4330   -23.7510 hc         1 EEU       0.035200
     51 H3         -11.1220     0.3630   -25.4010 hc         1 EEU       0.035200
     52 H4         -12.0610    -1.7620   -24.8810 hc         1 EEU       0.023700
     53 H5         -11.6610    -1.5580   -23.1810 hc         1 EEU       0.023700
     54 H6         -14.1420    -0.5470   -24.6880 hc         1 EEU       0.089700
     55 H7         -14.0470    -1.9170   -21.9980 hc         1 EEU       0.028700
     56 H8         -13.6700    -3.4810   -23.9480 hc         1 EEU       0.045700
     57 H9         -15.1750    -2.9100   -24.6640 hc         1 EEU       0.045700
     58 H10        -15.6890    -4.9420   -23.4340 hc         1 EEU       0.027700
     59 H11        -14.7830    -4.4190   -22.0270 hc         1 EEU       0.027700
     60 H12        -11.7220     0.2080   -21.6280 hc         1 EEU       0.018033
     61 H13        -12.7320     1.5280   -21.0600 hc         1 EEU       0.018033
     62 H14        -13.2750    -0.1310   -20.8900 hc         1 EEU       0.018033
     63 H15        -14.8030     2.2170   -22.1680 hc         1 EEU       0.092700
     64 H16        -15.3490     1.5530   -23.6900 hc         1 EEU       0.092700
     65 H17        -16.8190     0.7680   -21.9490 hc         1 EEU       0.039200
     66 H18        -15.5190     0.1280   -20.9670 hc         1 EEU       0.039200
     67 H19        -16.3490    -0.8650   -23.7440 hc         1 EEU       0.095700
     68 H20        -18.4280    -0.5930   -21.4920 ha         1 EEU       0.146000
     69 H21        -17.4420    -5.4670   -21.6880 ha         1 EEU       0.087000
     70 H22        -19.3590    -5.7330   -20.6590 ho         1 EEU       0.443000
     71 H23        -20.0200    -2.2130   -20.5440 ha         1 EEU       0.122000
     72 H24        -16.4010     1.7340   -26.8330 ha         1 EEU       0.097500
     73 H25        -12.8340     3.6150   -28.3770 ha         1 EEU       0.097500
     74 H26        -18.3010     1.5570   -28.2520 h1         1 EEU       0.019700
     75 H27        -18.0710     1.8200   -29.9690 h1         1 EEU       0.019700
     76 H28        -13.1390     5.0810   -30.3240 h1         1 EEU       0.019700
     77 H29        -14.6800     5.1620   -31.1620 h1         1 EEU       0.019700
     78 H34        -20.0090     4.7980   -27.6590 h1         1 EEU      -0.006550
     79 H35        -19.5480     3.2840   -26.9020 h1         1 EEU      -0.006550
     80 H36        -20.7660     2.2060   -28.9480 h1         1 EEU      -0.006550
     81 H37        -20.1380     2.5590   -30.5490 h1         1 EEU      -0.006550
     82 H38        -12.4750     3.8430   -33.8020 h1         1 EEU      -0.006550
     83 H39        -11.9660     5.0560   -32.6390 h1         1 EEU      -0.006550
     84 H40        -12.8270     1.9970   -30.6400 h1         1 EEU      -0.006550
     85 H41        -11.5290     3.1450   -30.9270 h1         1 EEU      -0.006550
@<TRIPOS>BOND
     1     1     2 3   
     2     1    23 1   
     3     2     3 1   
     4     3     4 1   
     5     3     5 1   
     6     3    11 1   
     7     4    49 1   
     8     5     6 1   
     9     5    50 1   
    10     5    51 1   
    11     6     7 1   
    12     6    52 1   
    13     6    53 1   
    14     7     8 1   
    15     7    11 1   
    16     7    54 1   
    17     8     9 1   
    18     8    15 1   
    19     8    55 1   
    20     9    10 1   
    21     9    56 1   
    22     9    57 1   
    23    10    18 1   
    24    10    58 1   
    25    10    59 1   
    26    11    12 1   
    27    11    13 1   
    28    12    60 1   
    29    12    61 1   
    30    12    62 1   
    31    13    14 1   
    32    13    63 1   
    33    13    64 1   
    34    14    15 1   
    35    14    65 1   
    36    14    66 1   
    37    15    16 1   
    38    15    67 1   
    39    16    17 ar  
    40    16    18 ar  
    41    17    22 ar  
    42    17    68 1   
    43    18    19 ar  
    44    19    20 ar  
    45    19    69 1   
    46    20    21 1   
    47    20    22 ar  
    48    21    70 1   
    49    22    71 1   
    50    23    24 ar  
    51    23    25 ar  
    52    24    26 ar  
    53    24    72 1   
    54    25    27 ar  
    55    25    73 1   
    56    26    28 ar  
    57    26    29 1   
    58    27    28 ar  
    59    27    30 1   
    60    29    31 1   
    61    29    74 1   
    62    29    75 1   
    63    30    32 1   
    64    30    76 1   
    65    30    77 1   
    66    31    37 1   
    67    31    38 1   
    68    32    39 1   
    69    32    40 1   
    70    33    41 1   
    71    34    42 1   
    72    35    43 1   
    73    36    44 1   
    74    37    41 1   
    75    37    78 1   
    76    37    79 1   
    77    38    42 1   
    78    38    80 1   
    79    38    81 1   
    80    39    43 1   
    81    39    82 1   
    82    39    83 1   
    83    40    44 1   
    84    40    84 1   
    85    40    85 1   
    86    41    45 1   
    87    42    46 1   
    88    43    47 1   
    89    44    48 1   
@<TRIPOS>SUBSTRUCTURE
     1 EEU         1 TEMP              0 ****  ****    0 ROOT
