@<TRIPOS>MOLECULE
EEV
   72    77     1     0     0
SMALL
abcg2


@<TRIPOS>ATOM
      1 C4          -5.8170    -1.5170    -1.1280 ca         1 EEV       0.171300
      2 C5          -5.0980    -0.4880    -0.5310 ca         1 EEV      -0.254800
      3 C6          -3.9940    -0.0010    -1.2810 ca         1 EEV       0.434900
      4 N1          -3.7230    -0.5440    -2.4680 nb         1 EEV      -0.284000
      5 N3          -5.5530    -2.0570    -2.3180 nb         1 EEV      -0.189000
      6 C2          -4.5060    -1.5200    -2.9140 ca         1 EEV       0.178900
      7 CAI          3.9490     1.7090    -2.0000 ca         1 EEV      -0.074000
      8 CAJ          5.0510     1.0580    -1.4950 ca         1 EEV      -0.127000
      9 CAK         -5.6230    -0.1200     0.7440 cc         1 EEV      -0.116200
     10 CAL          4.9860     1.9440     2.0010 cc         1 EEV      -0.156200
     11 CAM         -1.7760     2.9340    -1.1070 c6         1 EEV      -0.092900
     12 CAN         -0.8070     0.6400    -1.1380 c6         1 EEV      -0.092900
     13 CAO         -0.4900     3.4290    -1.7510 c6         1 EEV       0.171800
     14 CAP          0.4410     1.2250    -1.7800 c6         1 EEV       0.171800
     15 CAQ          5.4180    -3.2180    -0.1140 c6         1 EEV       0.067600
     16 CAR          8.1870    -2.5130     0.0030 c6         1 EEV       0.084000
     17 CAS          1.8920     3.1470    -1.8580 c3         1 EEV       0.224100
     18 CAU          7.3680    -0.1580     0.2080 c3         1 EEV       0.083600
     19 CBB          6.4760    -4.3030    -0.0820 c          1 EEV       0.536000
     20 CBC          3.3260     2.6520     0.1470 ca         1 EEV       0.015700
     21 CBD         -6.7040    -0.8550     1.0950 cd         1 EEV      -0.111600
     22 CBE          6.1070     1.1590     1.9300 cd         1 EEV       0.005200
     23 CBF          3.0860     2.4960    -1.2100 ca         1 EEV      -0.124300
     24 CBH          4.4510     1.9970     0.6870 ca         1 EEV      -0.121800
     25 CBK          5.2970     1.2140    -0.1310 ca         1 EEV      -0.005200
     26 CBL         -2.0310     1.4820    -1.4840 c6         1 EEV       0.234500
     27 CBM          7.0310    -1.6240     0.4170 c6         1 EEV       0.125300
     28 CBP         -8.8430    -0.1160     2.1460 c3         1 EEV       0.300000
     29 FAD         -9.6150    -0.8530     1.3330 f          1 EEV      -0.113667
     30 FAE         -9.5090     0.0180     3.3000 f          1 EEV      -0.113667
     31 FAF         -8.7550     1.1010     1.5970 f          1 EEV      -0.113667
     32 NAB          7.6980     0.5240     3.8390 n1         1 EEV      -0.447000
     33 NAX          7.7490    -3.8940    -0.0200 ns         1 EEV      -0.507900
     34 NAY         -3.2320     0.9990    -0.8290 nu         1 EEV      -0.912100
     35 NBN          0.6380     2.6020    -1.3740 n3         1 EEV      -0.728600
     36 NBO          6.3080     0.7210     0.6400 na         1 EEV      -0.067700
     37 OAZ          5.9080    -1.9280    -0.3730 os         1 EEV      -0.434000
     38 SBA         -7.1290    -2.0260    -0.1220 ss         1 EEV      -0.073900
     39 H1          -4.2460    -1.9240    -3.8860 h5         1 EEV       0.047100
     40 H2           1.5150     2.9380     1.2640 hc         1 EEV       0.046700
     41 H3           2.9270     3.7250     1.9710 hc         1 EEV       0.046700
     42 H4           2.1420     4.4050     0.5520 hc         1 EEV       0.046700
     43 H5           3.7210     1.6050    -3.0550 ha         1 EEV       0.110000
     44 H6           5.6780     0.4490    -2.1310 ha         1 EEV       0.125000
     45 H7          -5.2160     0.6510     1.3850 ha         1 EEV       0.197000
     46 H8           4.6140     2.4170     2.8950 ha         1 EEV       0.215000
     47 H9          -1.6880     3.0250    -0.0200 hc         1 EEV       0.054450
     48 H10         -2.6110     3.5620    -1.4250 hc         1 EEV       0.054450
     49 H11         -0.9480    -0.3880    -1.4780 hc         1 EEV       0.054450
     50 H12         -0.6800     0.6150    -0.0520 hc         1 EEV       0.054450
     51 H13         -0.6240     3.4630    -2.8480 h1         1 EEV       0.036950
     52 H14         -0.2970     4.4550    -1.4290 h1         1 EEV       0.036950
     53 H15          1.3100     0.6350    -1.4830 h1         1 EEV       0.036950
     54 H16          0.3610     1.1360    -2.8800 h1         1 EEV       0.036950
     55 H17          4.7000    -3.4610    -0.8980 h1         1 EEV       0.082200
     56 H18          4.8800    -3.2580     0.8450 h1         1 EEV       0.082200
     57 H19          8.5650    -2.2140    -0.9800 h1         1 EEV       0.052200
     58 H20          9.0070    -2.4150     0.7160 h1         1 EEV       0.052200
     59 H21          1.8950     4.2200    -1.6400 h1         1 EEV       0.036200
     60 H22          1.9820     3.0620    -2.9550 h1         1 EEV       0.036200
     61 H23         -7.6290    -1.7210     2.8280 hc         1 EEV       0.087700
     62 H24         -6.9310    -0.1260     3.0650 hc         1 EEV       0.087700
     63 H25          8.2820     0.0910     0.7500 h1         1 EEV       0.074700
     64 H26          7.5700     0.0360    -0.8460 h1         1 EEV       0.074700
     65 H27         -2.1990     1.4260    -2.5620 h1         1 EEV       0.084700
     66 H28          6.8060    -1.8000     1.4810 h1         1 EEV       0.061700
     67 H29          8.4600    -4.6100    -0.0140 hn         1 EEV       0.323500
     68 H30         -3.4050     1.3350     0.1060 hn         1 EEV       0.493000
     69 CAT         -7.4870    -0.7440     2.3590 c3         1 EEV      -0.077200
     70 CAA          2.4370     3.4710     1.0330 c3         1 EEV      -0.043800
     71 CAG          6.9860     0.8100     2.9780 ch         1 EEV       0.301700
     72 OAC          6.1450    -5.4810    -0.0840 o          1 EEV      -0.555000
@<TRIPOS>BOND
     1     1     2 ar  
     2     1     5 ar  
     3     1    38 1   
     4     2     3 ar  
     5     2     9 1   
     6     3     4 ar  
     7     3    34 1   
     8     4     6 ar  
     9     5     6 ar  
    10     6    39 1   
    11     7     8 ar  
    12     7    23 ar  
    13     7    43 1   
    14     8    25 ar  
    15     8    44 1   
    16     9    21 2   
    17     9    45 1   
    18    10    22 2   
    19    10    24 1   
    20    10    46 1   
    21    11    13 1   
    22    11    26 1   
    23    11    47 1   
    24    11    48 1   
    25    12    14 1   
    26    12    26 1   
    27    12    49 1   
    28    12    50 1   
    29    13    35 1   
    30    13    51 1   
    31    13    52 1   
    32    14    35 1   
    33    14    53 1   
    34    14    54 1   
    35    15    19 1   
    36    15    37 1   
    37    15    55 1   
    38    15    56 1   
    39    16    27 1   
    40    16    33 1   
    41    16    57 1   
    42    16    58 1   
    43    17    23 1   
    44    17    35 1   
    45    17    59 1   
    46    17    60 1   
    47    18    27 1   
    48    18    36 1   
    49    18    63 1   
    50    18    64 1   
    51    19    33 1   
    52    19    72 2   
    53    20    23 ar  
    54    20    24 ar  
    55    20    70 1   
    56    21    38 1   
    57    21    69 1   
    58    22    36 1   
    59    22    71 1   
    60    24    25 ar  
    61    25    36 1   
    62    26    34 1   
    63    26    65 1   
    64    27    37 1   
    65    27    66 1   
    66    28    29 1   
    67    28    30 1   
    68    28    31 1   
    69    28    69 1   
    70    32    71 3   
    71    33    67 1   
    72    34    68 1   
    73    40    70 1   
    74    41    70 1   
    75    42    70 1   
    76    61    69 1   
    77    62    69 1   
@<TRIPOS>SUBSTRUCTURE
     1 EEV         1 TEMP              0 ****  ****    0 ROOT
