@<TRIPOS>MOLECULE
EEV
   72    77     1     0     0
SMALL
No Charge or Current Charge


@<TRIPOS>ATOM
      1 C4          -5.7010    -1.8080    -0.9570 ca         1 EEV       0.171300
      2 C5          -5.0850    -0.6320    -0.5760 ca         1 EEV      -0.254800
      3 C6          -4.0580    -0.1330    -1.3920 ca         1 EEV       0.434900
      4 N1          -3.6940    -0.7880    -2.5140 nb         1 EEV      -0.284000
      5 N3          -5.3600    -2.4840    -2.0680 nb         1 EEV      -0.189000
      6 C2          -4.3630    -1.9310    -2.7950 ca         1 EEV       0.178900
      7 CAI          3.8960     1.7160    -1.9120 ca         1 EEV      -0.074000
      8 CAJ          4.9980     1.0540    -1.3360 ca         1 EEV      -0.127000
      9 CAK         -5.6190    -0.0840     0.6560 cc         1 EEV      -0.116200
     10 CAL          4.9570     2.0140     2.1310 cc         1 EEV      -0.156200
     11 CAM         -1.9300     3.0090    -1.3700 c6         1 EEV      -0.092900
     12 CAN         -0.9350     0.7010    -1.1260 c6         1 EEV      -0.092900
     13 CAO         -0.5760     3.5000    -1.9290 c6         1 EEV       0.171800
     14 CAP          0.3970     1.2480    -1.6860 c6         1 EEV       0.171800
     15 CAQ          5.4690    -3.4280    -0.1660 c6         1 EEV       0.067600
     16 CAR          8.2500    -2.6030     0.0710 c6         1 EEV       0.084000
     17 CAS          1.8710     3.2380    -1.8130 c3         1 EEV       0.224100
     18 CAU          7.3250    -0.1980     0.3030 c3         1 EEV       0.083600
     19 CBB          6.5950    -4.3770    -0.6330 c          1 EEV       0.536000
     20 CBC          3.3360     2.7410     0.2500 ca         1 EEV       0.015700
     21 CBD         -6.6390    -0.8760     1.1600 cd         1 EEV      -0.111600
     22 CBE          6.0640     1.1760     2.1260 cd         1 EEV       0.005200
     23 CBF          3.0610     2.5570    -1.1340 ca         1 EEV      -0.124300
     24 CBH          4.4440     2.0570     0.7870 ca         1 EEV      -0.121800
     25 CBK          5.2510     1.2480     0.0290 ca         1 EEV      -0.005200
     26 CBL         -2.1290     1.5100    -1.6800 c6         1 EEV       0.234500
     27 CBM          7.0300    -1.7130     0.4710 c6         1 EEV       0.125300
     28 CBP         -8.7320     0.1670     2.1960 c3         1 EEV       0.300000
     29 FAD         -9.5710    -0.4940     1.3660 f          1 EEV      -0.113667
     30 FAE         -9.3790     0.3640     3.3670 f          1 EEV      -0.113667
     31 FAF         -8.4750     1.3800     1.6550 f          1 EEV      -0.113667
     32 NAB          7.5770     0.5140     4.1230 n1         1 EEV      -0.447000
     33 NAX          7.8780    -3.9820    -0.3200 ns         1 EEV      -0.507900
     34 NAY         -3.3910     1.0450    -1.0740 nu         1 EEV      -0.912100
     35 NBN          0.5560     2.7000    -1.3890 n3         1 EEV      -0.728600
     36 NBO          6.2630     0.6970     0.8100 na         1 EEV      -0.067700
     37 OAZ          5.8640    -2.0420    -0.3230 os         1 EEV      -0.434000
     38 SBA         -6.9750    -2.3250     0.1630 ss         1 EEV      -0.073900
     39 H1          -4.0690    -2.4600    -3.6990 h5         1 EEV       0.047100
     40 H2           1.4920     3.1480     1.3280 hc         1 EEV       0.046700
     41 H3           2.9210     3.8460     2.0980 hc         1 EEV       0.046700
     42 H4           2.2600     4.5950     0.6540 hc         1 EEV       0.046700
     43 H5           3.6840     1.5680    -2.9680 ha         1 EEV       0.110000
     44 H6           5.6220     0.4030    -1.9420 ha         1 EEV       0.125000
     45 H7          -5.2860     0.8310     1.1410 ha         1 EEV       0.197000
     46 H8           4.5670     2.5220     3.0090 ha         1 EEV       0.215000
     47 H9          -1.9590     3.1830    -0.2860 hc         1 EEV       0.054450
     48 H10         -2.7450     3.5980    -1.8110 hc         1 EEV       0.054450
     49 H11         -1.0350    -0.3590    -1.3930 hc         1 EEV       0.054450
     50 H12         -0.9180     0.7520    -0.0290 hc         1 EEV       0.054450
     51 H13         -0.5960     3.4400    -3.0280 h1         1 EEV       0.036950
     52 H14         -0.4520     4.5610    -1.6650 h1         1 EEV       0.036950
     53 H15          1.2190     0.6690    -1.2410 h1         1 EEV       0.036950
     54 H16          0.4300     1.0760    -2.7720 h1         1 EEV       0.036950
     55 H17          4.5740    -3.6300    -0.7690 h1         1 EEV       0.082200
     56 H18          5.2530    -3.6430     0.8900 h1         1 EEV       0.082200
     57 H19          8.7690    -2.1450    -0.7830 h1         1 EEV       0.052200
     58 H20          8.9640    -2.6470     0.9050 h1         1 EEV       0.052200
     59 H21          1.9220     4.3140    -1.5960 h1         1 EEV       0.036200
     60 H22          1.9750     3.1410    -2.9020 h1         1 EEV       0.036200
     61 H23         -7.6810    -1.5850     2.8970 hc         1 EEV       0.087700
     62 H24         -6.8100    -0.0860     3.1480 hc         1 EEV       0.087700
     63 H25          8.2520     0.0350     0.8420 h1         1 EEV       0.074700
     64 H26          7.5090     0.0170    -0.7560 h1         1 EEV       0.074700
     65 H27         -2.1620     1.3950    -2.7750 h1         1 EEV       0.084700
     66 H28          6.7910    -1.9020     1.5280 h1         1 EEV       0.061700
     67 H29          8.6160    -4.6110    -0.6160 hn         1 EEV       0.323500
     68 H30         -3.7030     1.4960    -0.2180 hn         1 EEV       0.493000
     69 CAT         -7.4280    -0.6280     2.4230 c3         1 EEV      -0.077200
     70 CAA          2.4570     3.6290     1.1310 c3         1 EEV      -0.043800
     71 CAG          6.8880     0.8240     3.2320 ch         1 EEV       0.301700
     72 OAC          6.3930    -5.3770    -1.3060 o          1 EEV      -0.555000
@<TRIPOS>BOND
     1     1     2 ar  
     2     1     5 ar  
     3     1    38 1   
     4     2     3 ar  
     5     2     9 1   
     6     3     4 ar  
     7     3    34 1   
     8     4     6 ar  
     9     5     6 ar  
    10     6    39 1   
    11     7     8 ar  
    12     7    23 ar  
    13     7    43 1   
    14     8    25 ar  
    15     8    44 1   
    16     9    21 2   
    17     9    45 1   
    18    10    22 2   
    19    10    24 1   
    20    10    46 1   
    21    11    13 1   
    22    11    26 1   
    23    11    47 1   
    24    11    48 1   
    25    12    14 1   
    26    12    26 1   
    27    12    49 1   
    28    12    50 1   
    29    13    35 1   
    30    13    51 1   
    31    13    52 1   
    32    14    35 1   
    33    14    53 1   
    34    14    54 1   
    35    15    19 1   
    36    15    37 1   
    37    15    55 1   
    38    15    56 1   
    39    16    27 1   
    40    16    33 1   
    41    16    57 1   
    42    16    58 1   
    43    17    23 1   
    44    17    35 1   
    45    17    59 1   
    46    17    60 1   
    47    18    27 1   
    48    18    36 1   
    49    18    63 1   
    50    18    64 1   
    51    19    33 1   
    52    19    72 2   
    53    20    23 ar  
    54    20    24 ar  
    55    20    70 1   
    56    21    38 1   
    57    21    69 1   
    58    22    36 1   
    59    22    71 1   
    60    24    25 ar  
    61    25    36 1   
    62    26    34 1   
    63    26    65 1   
    64    27    37 1   
    65    27    66 1   
    66    28    29 1   
    67    28    30 1   
    68    28    31 1   
    69    28    69 1   
    70    32    71 3   
    71    33    67 1   
    72    34    68 1   
    73    40    70 1   
    74    41    70 1   
    75    42    70 1   
    76    61    69 1   
    77    62    69 1   
@<TRIPOS>SUBSTRUCTURE
     1 EEV         1 TEMP              0 ****  ****    0 ROOT
