@<TRIPOS>MOLECULE
EEW
   48    48     1     0     0
SMALL
No Charge or Current Charge


@<TRIPOS>ATOM
      1 C4           0.1590    -2.2990    -0.1170 c6         1 EEW       0.154500
      2 C5           1.0960    -1.1360     0.3320 c6         1 EEW       0.112700
      3 C6           0.8150     0.1100    -0.5600 c6         1 EEW       0.189500
      4 C11          4.9170    -1.5580     0.7310 c3         1 EEW      -0.184100
      5 C7          -0.6760     0.4080    -0.6620 c2         1 EEW      -0.225200
      6 C9           1.5860     3.6710    -0.1110 c3         1 EEW      -0.085400
      7 C3          -1.3330    -1.9120     0.0590 c6         1 EEW      -0.029200
      8 C91          0.1550     3.8910     0.4250 c3         1 EEW      -0.087100
      9 C81          3.1990     2.2450    -1.5140 c3         1 EEW      -0.085400
     10 C82          3.4390     1.0580    -2.4700 c3         1 EEW      -0.087100
     11 O7           1.5100     1.2670    -0.0440 os         1 EEW      -0.456000
     12 C2          -1.6510    -0.4880    -0.3970 c2         1 EEW      -0.211800
     13 P           -3.4800    -0.0540    -0.5290 p5         1 EEW       1.267000
     14 OP1         -4.3280    -1.2710    -0.7180 o          1 EEW      -0.829000
     15 OP2         -3.7000     1.1150    -1.4340 o          1 EEW      -0.829000
     16 OP3         -3.5360     0.4200     1.0130 os         1 EEW      -0.611400
     17 CP1         -4.7720     0.9120     1.5360 c3         1 EEW       0.214900
     18 N4           0.4480    -3.5620     0.6070 n8         1 EEW      -0.988200
     19 N5           2.5240    -1.5300     0.2570 ns         1 EEW      -0.498900
     20 O10          3.2780    -0.5010     2.1510 o          1 EEW      -0.595100
     21 H1           0.3550    -2.4960    -1.1820 h1         1 EEW       0.008700
     22 H2           0.8490    -0.8780     1.3720 h1         1 EEW       0.116700
     23 H3           1.1820    -0.1060    -1.5720 h1         1 EEW       0.016700
     24 H4           5.1350    -1.1750    -0.2720 hc         1 EEW       0.049367
     25 H5           5.6760    -1.2440     1.4570 hc         1 EEW       0.049367
     26 H6           4.9320    -2.6430     0.5730 hc         1 EEW       0.049367
     27 H7          -0.9420     1.4170    -0.9750 ha         1 EEW       0.186000
     28 H8           1.0410     2.3900    -1.7670 h1         1 EEW       0.039700
     29 H9           2.2890     3.6650     0.7320 hc         1 EEW       0.034950
     30 H10          1.8550     4.5300    -0.7380 hc         1 EEW       0.034950
     31 H11         -1.9530    -2.6270    -0.4980 hc         1 EEW       0.068200
     32 H12         -1.6230    -2.0110     1.1150 hc         1 EEW       0.068200
     33 H13          0.0960     4.8390     0.9740 hc         1 EEW       0.034200
     34 H14         -0.5660     3.9290    -0.4000 hc         1 EEW       0.034200
     35 H15         -0.1380     3.0840     1.1070 hc         1 EEW       0.034200
     36 H16          3.4320     3.1670    -2.0610 hc         1 EEW       0.034950
     37 H17          3.9180     2.1880    -0.6870 hc         1 EEW       0.034950
     38 H18          4.4270     1.1440    -2.9370 hc         1 EEW       0.034200
     39 H19          3.4080     0.1050    -1.9320 hc         1 EEW       0.034200
     40 H20          2.6850     1.0400    -3.2660 hc         1 EEW       0.034200
     41 H22         -5.5570     0.1480     1.4690 h1         1 EEW       0.007367
     42 H23         -4.6540     1.1870     2.5920 h1         1 EEW       0.007367
     43 H24         -5.1030     1.8030     0.9870 h1         1 EEW       0.007367
     44 H25          0.0960    -4.3500     0.0530 hn         1 EEW       0.384000
     45 H26          1.4640    -3.7020     0.6170 hn         1 EEW       0.384000
     46 H28          2.8300    -2.0480    -0.5570 hn         1 EEW       0.289500
     47 C8           1.7610     2.3730    -0.9370 c3         1 EEW       0.179300
     48 C10          3.5090    -1.1320     1.1290 c          1 EEW       0.608100
@<TRIPOS>BOND
     1     1     2 1   
     2     1     7 1   
     3     1    18 1   
     4     1    21 1   
     5     2     3 1   
     6     2    19 1   
     7     2    22 1   
     8     3     5 1   
     9     3    11 1   
    10     3    23 1   
    11     4    24 1   
    12     4    25 1   
    13     4    26 1   
    14     4    48 1   
    15     5    12 2   
    16     5    27 1   
    17     6     8 1   
    18     6    29 1   
    19     6    30 1   
    20     6    47 1   
    21     7    12 1   
    22     7    31 1   
    23     7    32 1   
    24     8    33 1   
    25     8    34 1   
    26     8    35 1   
    27     9    10 1   
    28     9    36 1   
    29     9    37 1   
    30     9    47 1   
    31    10    38 1   
    32    10    39 1   
    33    10    40 1   
    34    11    47 1   
    35    12    13 1   
    36    13    14 1   
    37    13    15 1   
    38    13    16 1   
    39    16    17 1   
    40    17    41 1   
    41    17    42 1   
    42    17    43 1   
    43    18    44 1   
    44    18    45 1   
    45    19    46 1   
    46    19    48 1   
    47    20    48 2   
    48    28    47 1   
@<TRIPOS>SUBSTRUCTURE
     1 EEW         1 TEMP              0 ****  ****    0 ROOT
