@<TRIPOS>MOLECULE
EEW
   48    48     1     0     0
SMALL
bcc


@<TRIPOS>ATOM
      1 C4           0.2490    -2.3760    -0.2190 c6         1 EEW       0.154500
      2 C5           1.1890    -1.2570     0.2260 c6         1 EEW       0.112700
      3 C6           0.7940     0.0540    -0.4530 c6         1 EEW       0.166300
      4 C11          4.9540    -1.6640     0.2000 c3         1 EEW      -0.184100
      5 C7          -0.6890     0.2900    -0.3730 c2         1 EEW      -0.175200
      6 C9           1.3890     3.4540     0.4530 c3         1 EEW      -0.085400
      7 C3          -1.1620    -2.0580     0.2530 c6         1 EEW      -0.029200
      8 C91         -0.0040     3.4500     1.0650 c3         1 EEW      -0.087100
      9 C81          3.0370     2.4490    -1.1540 c3         1 EEW      -0.085400
     10 C82          3.3690     1.4070    -2.2130 c3         1 EEW      -0.087100
     11 O7           1.5250     1.0860     0.1710 os         1 EEW      -0.409600
     12 C2          -1.5820    -0.6470    -0.0620 c2         1 EEW      -0.211800
     13 P           -3.3740    -0.3790     0.0350 p5         1 EEW       1.267000
     14 OP1         -3.8390    -0.7340     1.4230 o          1 EEW      -0.829000
     15 OP2         -4.0360    -1.0440    -1.1430 o          1 EEW      -0.829000
     16 OP3         -3.4230     1.2560    -0.1620 os         1 EEW      -0.588200
     17 CP1         -4.6700     1.9010     0.0000 c3         1 EEW       0.191700
     18 N4           0.6760    -3.6430     0.3500 n8         1 EEW      -0.877800
     19 N5           2.5660    -1.5790    -0.0640 ns         1 EEW      -0.565900
     20 O10          3.4430    -1.1390     1.9780 o          1 EEW      -0.595100
     21 H1           0.2410    -2.3890    -1.3230 h1         1 EEW       0.008700
     22 H2           1.0960    -1.1390     1.3080 h1         1 EEW       0.116700
     23 H3           1.0740    -0.0200    -1.5160 h1         1 EEW       0.016700
     24 H4           5.3900    -0.6990    -0.0690 hc         1 EEW       0.049367
     25 H5           5.6130    -2.1300     0.9300 hc         1 EEW       0.049367
     26 H6           4.9310    -2.2790    -0.6990 hc         1 EEW       0.049367
     27 H7          -1.0180     1.2970    -0.6030 ha         1 EEW       0.136000
     28 H8           0.9000     2.3730    -1.3330 h1         1 EEW       0.039700
     29 H9           2.1420     3.4140     1.2470 hc         1 EEW       0.034950
     30 H10          1.5510     4.3980    -0.0730 hc         1 EEW       0.034950
     31 H11         -1.8620    -2.7670    -0.2000 hc         1 EEW       0.068200
     32 H12         -1.2230    -2.2250     1.3340 hc         1 EEW       0.068200
     33 H13         -0.1210     4.2800     1.7630 hc         1 EEW       0.034200
     34 H14         -0.7770     3.5530     0.3010 hc         1 EEW       0.034200
     35 H15         -0.1990     2.5280     1.6110 hc         1 EEW       0.034200
     36 H16          3.1040     3.4450    -1.6000 hc         1 EEW       0.034950
     37 H17          3.7870     2.4180    -0.3580 hc         1 EEW       0.034950
     38 H18          4.3390     1.6140    -2.6660 hc         1 EEW       0.034200
     39 H19          3.4180     0.4050    -1.7880 hc         1 EEW       0.034200
     40 H20          2.6270     1.3950    -3.0130 hc         1 EEW       0.034200
     41 H22         -5.0470     1.8140     1.0220 h1         1 EEW       0.007367
     42 H23         -4.5350     2.9590    -0.2260 h1         1 EEW       0.007367
     43 H24         -5.4320     1.5040    -0.6770 h1         1 EEW       0.007367
     44 H25          0.0350    -4.3680     0.0520 hn         1 EEW       0.328800
     45 H26          1.5760    -3.9040    -0.0350 hn         1 EEW       0.328800
     46 H28          2.7930    -1.7960    -1.0220 hn         1 EEW       0.289500
     47 C8           1.6500     2.3160    -0.5290 c3         1 EEW       0.156100
     48 C10          3.5880    -1.4380     0.8020 c          1 EEW       0.675100
@<TRIPOS>BOND
     1     1     2 1   
     2     1     7 1   
     3     1    18 1   
     4     1    21 1   
     5     2     3 1   
     6     2    19 1   
     7     2    22 1   
     8     3     5 1   
     9     3    11 1   
    10     3    23 1   
    11     4    24 1   
    12     4    25 1   
    13     4    26 1   
    14     4    48 1   
    15     5    12 2   
    16     5    27 1   
    17     6     8 1   
    18     6    29 1   
    19     6    30 1   
    20     6    47 1   
    21     7    12 1   
    22     7    31 1   
    23     7    32 1   
    24     8    33 1   
    25     8    34 1   
    26     8    35 1   
    27     9    10 1   
    28     9    36 1   
    29     9    37 1   
    30     9    47 1   
    31    10    38 1   
    32    10    39 1   
    33    10    40 1   
    34    11    47 1   
    35    12    13 1   
    36    13    14 1   
    37    13    15 1   
    38    13    16 1   
    39    16    17 1   
    40    17    41 1   
    41    17    42 1   
    42    17    43 1   
    43    18    44 1   
    44    18    45 1   
    45    19    46 1   
    46    19    48 1   
    47    20    48 2   
    48    28    47 1   
@<TRIPOS>SUBSTRUCTURE
     1 EEW         1 TEMP              0 ****  ****    0 ROOT
