@<TRIPOS>MOLECULE
EEX
   35    36     1     0     0
SMALL
abcg2


@<TRIPOS>ATOM
      1 N1          32.1560    41.5030    26.9480 n          1 EEX      -0.357800
      2 C4          30.8110    44.8630    27.5510 ca         1 EEX      -0.089000
      3 C5          30.9390    43.4870    27.7120 ca         1 EEX      -0.023300
      4 C6          30.7080    42.9180    28.9610 ca         1 EEX      -0.083300
      5 C7          31.2760    42.5950    26.5500 c6         1 EEX      -0.014000
      6 C8          32.1110    40.9810    28.3120 c6         1 EEX       0.127000
      7 C10         29.9550    42.1060    25.8660 c          1 EEX       0.731000
      8 C13         33.7940    38.6510    25.5230 c3         1 EEX       0.090600
      9 C1          30.3630    43.7250    30.0380 ca         1 EEX      -0.116000
     10 C11         32.9140    40.9540    25.9790 c          1 EEX       0.611100
     11 C12         33.9660    39.9150    26.3560 c3         1 EEX      -0.132700
     12 C14         35.3510    40.5190    26.1100 c3         1 EEX      -0.080100
     13 C2          30.2300    45.0980    29.8730 ca         1 EEX      -0.141000
     14 C3          30.4550    45.6660    28.6250 ca         1 EEX      -0.125000
     15 C9          30.8660    41.4350    29.0590 c6         1 EEX      -0.041100
     16 O1          29.6580    40.9070    25.9860 o          1 EEX      -0.706000
     17 O2          29.3260    43.0010    25.2750 o          1 EEX      -0.706000
     18 O3          32.8360    41.3150    24.8090 o          1 EEX      -0.616100
     19 H1          31.0000    45.3090    26.5820 ha         1 EEX       0.120000
     20 H2          31.8070    43.1970    25.8120 h1         1 EEX       0.072700
     21 H3          32.1120    39.8920    28.2960 h1         1 EEX       0.023200
     22 H4          32.9950    41.3030    28.8700 h1         1 EEX       0.023200
     23 H6          33.8000    38.8910    24.4610 h1         1 EEX       0.055700
     24 H7          30.1980    43.2780    31.0110 ha         1 EEX       0.090000
     25 H8          33.9140    39.6420    27.4100 hc         1 EEX       0.057700
     26 H9          35.4940    41.4260    26.6970 hc         1 EEX       0.033700
     27 H10         36.1260    39.8090    26.4000 hc         1 EEX       0.033700
     28 H11         35.4930    40.7670    25.0580 hc         1 EEX       0.033700
     29 H12         29.9590    45.7210    30.7150 ha         1 EEX       0.088000
     30 H13         30.3590    46.7360    28.4910 ha         1 EEX       0.092000
     31 H14         29.9900    40.9340    28.6400 hc         1 EEX       0.061700
     32 H15         30.9510    41.1120    30.0970 hc         1 EEX       0.061700
     33 H17         32.2340    36.8920    25.0140 hs         1 EEX       0.184800
     34 S1          32.2140    37.8430    25.9530 sh         1 EEX      -0.413800
     35 H5          34.6170    37.9650    25.7260 h1         1 EEX       0.055700
@<TRIPOS>BOND
     1     1     5 1   
     2     1     6 1   
     3     1    10 1   
     4     2     3 ar  
     5     2    14 ar  
     6     2    19 1   
     7     3     4 ar  
     8     3     5 1   
     9     4     9 ar  
    10     4    15 1   
    11     5     7 1   
    12     5    20 1   
    13     6    15 1   
    14     6    21 1   
    15     6    22 1   
    16     7    16 1   
    17     7    17 1   
    18     8    11 1   
    19     8    23 1   
    20     8    34 1   
    21     8    35 1   
    22     9    13 ar  
    23     9    24 1   
    24    10    11 1   
    25    10    18 2   
    26    11    12 1   
    27    11    25 1   
    28    12    26 1   
    29    12    27 1   
    30    12    28 1   
    31    13    14 ar  
    32    13    29 1   
    33    14    30 1   
    34    15    31 1   
    35    15    32 1   
    36    33    34 1   
@<TRIPOS>SUBSTRUCTURE
     1 EEX         1 TEMP              0 ****  ****    0 ROOT
