@<TRIPOS>MOLECULE
EEX
   35    36     1     0     0
SMALL
No Charge or Current Charge


@<TRIPOS>ATOM
      1 N1          32.1220    41.4810    26.8860 n          1 EEX      -0.357800
      2 C4          30.6810    44.9160    27.5860 ca         1 EEX      -0.089000
      3 C5          30.8520    43.5270    27.7460 ca         1 EEX      -0.023300
      4 C6          30.6850    42.9490    29.0140 ca         1 EEX      -0.083300
      5 C7          31.2100    42.6370    26.5480 c6         1 EEX      -0.014000
      6 C8          32.0560    40.9430    28.2800 c6         1 EEX       0.127000
      7 C10         29.9140    42.2510    25.7710 c          1 EEX       0.731000
      8 C13         33.8170    38.5810    25.5200 c3         1 EEX       0.090600
      9 C1          30.3410    43.7480    30.1200 ca         1 EEX      -0.116000
     10 C11         33.0110    40.9630    25.9080 c          1 EEX       0.611100
     11 C12         34.0720    39.8940    26.2900 c3         1 EEX      -0.132700
     12 C14         35.5020    40.4280    26.0370 c3         1 EEX      -0.080100
     13 C2          30.1720    45.1340    29.9570 ca         1 EEX      -0.141000
     14 C3          30.3420    45.7180    28.6900 ca         1 EEX      -0.125000
     15 C9          30.8780    41.4480    29.1470 c6         1 EEX      -0.041100
     16 O1          29.2950    41.2500    26.1110 o          1 EEX      -0.706000
     17 O2          29.5560    42.9830    24.8560 o          1 EEX      -0.706000
     18 O3          32.9610    41.3800    24.7550 o          1 EEX      -0.616100
     19 H1          30.8060    45.3730    26.6070 ha         1 EEX       0.120000
     20 H2          31.7630    43.2830    25.8520 h1         1 EEX       0.072700
     21 H3          32.0040    39.8460    28.2440 h1         1 EEX       0.023200
     22 H4          32.9940    41.2110    28.7870 h1         1 EEX       0.023200
     23 H6          33.8310    38.7750    24.4390 h1         1 EEX       0.055700
     24 H7          30.2080    43.3000    31.1020 ha         1 EEX       0.090000
     25 H8          34.0170    39.6520    27.3540 hc         1 EEX       0.057700
     26 H9          35.6720    41.3530    26.6020 hc         1 EEX       0.033700
     27 H10         36.2520    39.6940    26.3550 hc         1 EEX       0.033700
     28 H11         35.6620    40.6410    24.9730 hc         1 EEX       0.033700
     29 H12         29.9080    45.7530    30.8110 ha         1 EEX       0.088000
     30 H13         30.2100    46.7900    28.5630 ha         1 EEX       0.092000
     31 H14         29.9550    40.9400    28.8390 hc         1 EEX       0.061700
     32 H15         31.0490    41.1670    30.1950 hc         1 EEX       0.061700
     33 H17         32.3500    36.7090    25.1250 hs         1 EEX       0.184800
     34 S1          32.2090    37.7730    25.9530 sh         1 EEX      -0.413800
     35 H5          34.6200    37.8670    25.7440 h1         1 EEX       0.055700
@<TRIPOS>BOND
     1     1     5 1   
     2     1     6 1   
     3     1    10 1   
     4     2     3 ar  
     5     2    14 ar  
     6     2    19 1   
     7     3     4 ar  
     8     3     5 1   
     9     4     9 ar  
    10     4    15 1   
    11     5     7 1   
    12     5    20 1   
    13     6    15 1   
    14     6    21 1   
    15     6    22 1   
    16     7    16 1   
    17     7    17 1   
    18     8    11 1   
    19     8    23 1   
    20     8    34 1   
    21     8    35 1   
    22     9    13 ar  
    23     9    24 1   
    24    10    11 1   
    25    10    18 2   
    26    11    12 1   
    27    11    25 1   
    28    12    26 1   
    29    12    27 1   
    30    12    28 1   
    31    13    14 ar  
    32    13    29 1   
    33    14    30 1   
    34    15    31 1   
    35    15    32 1   
    36    33    34 1   
@<TRIPOS>SUBSTRUCTURE
     1 EEX         1 TEMP              0 ****  ****    0 ROOT
