@<TRIPOS>MOLECULE
EEY
   27    28     1     0     0
SMALL
No Charge or Current Charge


@<TRIPOS>ATOM
      1 C10         -0.6220     0.8020     0.3810 c          1 EEY       0.627700
      2 N12         -1.3710    -0.2880    -0.0500 ns         1 EEY      -0.140000
      3 C13         -2.7630    -0.5750    -0.0000 ca         1 EEY       0.012000
      4 C15         -4.5780    -2.1240    -0.4640 ca         1 EEY       0.358900
      5 C17         -5.0890    -0.0900     0.5110 ca         1 EEY       0.358900
      6 C01          3.6710     0.3930    -0.2270 ca         1 EEY      -0.019000
      7 C02          3.0800     1.6640    -0.2130 ca         1 EEY      -0.123000
      8 C03          1.6980     1.8160    -0.0210 ca         1 EEY       0.192000
      9 C04          0.8730     0.6760     0.1590 ca         1 EEY      -0.166600
     10 C05          1.4790    -0.6070     0.1410 ca         1 EEY      -0.022000
     11 C06          2.8730    -0.7570    -0.0510 ca         1 EEY      -0.186200
     12 C14         -3.2090    -1.8100    -0.4980 ca         1 EEY      -0.204000
     13 C18         -3.7400     0.3010     0.5140 ca         1 EEY      -0.204000
     14 N07          3.5000    -2.1190    -0.0610 no         1 EEY       0.697200
     15 N16         -5.5110    -1.2820     0.0320 nb         1 EEY      -0.676000
     16 O08          2.7630    -3.1040     0.0810 o          1 EEY      -0.389500
     17 O09          4.7260    -2.1990    -0.2150 o          1 EEY      -0.389500
     18 O11         -1.1200     1.7640     0.9520 o          1 EEY      -0.537100
     19 H1          -0.8260    -1.0080    -0.5050 hn         1 EEY       0.160000
     20 H2          -4.9380    -3.0780    -0.8450 h4         1 EEY       0.021600
     21 H3          -5.8590     0.5740     0.9040 h4         1 EEY       0.021600
     22 H4           4.7470     0.3130    -0.3790 ha         1 EEY       0.160000
     23 H5           3.7000     2.5450    -0.3600 ha         1 EEY       0.149000
     24 H6           0.8720    -1.4970     0.3040 ha         1 EEY       0.160000
     25 H7          -2.5090    -2.5320    -0.9100 ha         1 EEY       0.138000
     26 H8          -3.4920     1.2770     0.9150 ha         1 EEY       0.138000
     27 Cl1          1.0660     3.4640    -0.0870 cl         1 EEY      -0.137000
@<TRIPOS>BOND
     1     1     2 1   
     2     1     9 1   
     3     1    18 2   
     4     2     3 1   
     5     2    19 1   
     6     3    12 ar  
     7     3    13 ar  
     8     4    12 ar  
     9     4    15 ar  
    10     4    20 1   
    11     5    13 ar  
    12     5    15 ar  
    13     5    21 1   
    14     6     7 ar  
    15     6    11 ar  
    16     6    22 1   
    17     7     8 ar  
    18     7    23 1   
    19     8     9 ar  
    20     8    27 1   
    21     9    10 ar  
    22    10    11 ar  
    23    10    24 1   
    24    11    14 1   
    25    12    25 1   
    26    13    26 1   
    27    14    16 1   
    28    14    17 1   
@<TRIPOS>SUBSTRUCTURE
     1 EEY         1 TEMP              0 ****  ****    0 ROOT
