@<TRIPOS>MOLECULE
EEY
   27    28     1     0     0
SMALL
bcc


@<TRIPOS>ATOM
      1 C10         -0.6160     0.6440     0.4590 c          1 EEY       0.694700
      2 N12         -1.3660    -0.2860    -0.1840 ns         1 EEY      -0.466100
      3 C13         -2.7290    -0.5350    -0.0680 ca         1 EEY       0.104600
      4 C15         -4.6050    -1.8530    -0.7530 ca         1 EEY       0.424200
      5 C17         -4.9400    -0.2070     0.7590 ca         1 EEY       0.424200
      6 C01          3.6040     0.3770    -0.2890 ca         1 EEY      -0.037000
      7 C02          2.9460     1.5750    -0.4950 ca         1 EEY      -0.141000
      8 C03          1.5800     1.6640    -0.2730 ca         1 EEY       0.100400
      9 C04          0.8470     0.5510     0.1410 ca         1 EEY      -0.166600
     10 C05          1.5070    -0.6540     0.3310 ca         1 EEY      -0.040000
     11 C06          2.8730    -0.7260     0.1220 ca         1 EEY      -0.186200
     12 C14         -3.2560    -1.5710    -0.8400 ca         1 EEY      -0.287300
     13 C18         -3.6050     0.1690     0.7570 ca         1 EEY      -0.287300
     14 N07          3.5550    -1.9930     0.3410 no         1 EEY       0.317200
     15 N16         -5.4510    -1.1910     0.0310 nb         1 EEY      -0.676000
     16 O08          2.8920    -2.9380     0.6940 o          1 EEY      -0.199500
     17 O09          4.7480    -2.0300     0.1560 o          1 EEY      -0.199500
     18 O11         -1.0410     1.4710     1.2360 o          1 EEY      -0.537100
     19 H1          -0.8850    -0.8660    -0.8570 hn         1 EEY       0.326500
     20 H2          -5.0210    -2.6580    -1.3490 h4         1 EEY       0.021600
     21 H3          -5.6310     0.3320     1.3970 h4         1 EEY       0.021600
     22 H4           4.6690     0.3210    -0.4540 ha         1 EEY       0.178000
     23 H5           3.4990     2.4420    -0.8260 ha         1 EEY       0.167000
     24 H6           0.9540    -1.5230     0.6590 ha         1 EEY       0.178000
     25 H7          -2.6240    -2.1510    -1.5000 ha         1 EEY       0.156000
     26 H8          -3.2850     0.9870     1.3800 ha         1 EEY       0.156000
     27 CL1          0.8010     3.1670    -0.5670 cl         1 EEY      -0.045400
@<TRIPOS>BOND
     1     1     2 1   
     2     1     9 1   
     3     1    18 2   
     4     2     3 1   
     5     2    19 1   
     6     3    12 ar  
     7     3    13 ar  
     8     4    12 ar  
     9     4    15 ar  
    10     4    20 1   
    11     5    13 ar  
    12     5    15 ar  
    13     5    21 1   
    14     6     7 ar  
    15     6    11 ar  
    16     6    22 1   
    17     7     8 ar  
    18     7    23 1   
    19     8     9 ar  
    20     8    27 1   
    21     9    10 ar  
    22    10    11 ar  
    23    10    24 1   
    24    11    14 1   
    25    12    25 1   
    26    13    26 1   
    27    14    16 1   
    28    14    17 1   
@<TRIPOS>SUBSTRUCTURE
     1 EEY         1 TEMP              0 ****  ****    0 ROOT
