@<TRIPOS>MOLECULE
EEZ
   54    56     1     0     0
SMALL
abcg2


@<TRIPOS>ATOM
      1 C1         -17.2410     5.0940    79.6280 ca         1 EEZ      -0.061000
      2 C2         -17.2350     4.9460    80.9990 ca         1 EEZ       0.063000
      3 C3         -17.5660     3.7090    81.5740 ca         1 EEZ       0.579300
      4 C11        -19.6430     2.4820    83.3790 ca         1 EEZ      -0.114300
      5 C12        -20.3380     3.6790    83.5480 ca         1 EEZ      -0.089500
      6 C13        -21.7240     3.7090    83.4460 ca         1 EEZ      -0.114500
      7 C14        -22.4320     2.5400    83.1810 ca         1 EEZ      -0.104000
      8 C15        -21.7440     1.3420    83.0130 ca         1 EEZ      -0.114500
      9 C16        -20.3560     1.3170    83.1070 ca         1 EEZ      -0.089500
     10 C17        -17.6910     2.4510    84.9750 c3         1 EEZ      -0.089100
     11 C18        -17.4730     5.0590    76.5930 c          1 EEZ       0.605100
     12 C20        -17.7160     4.7340    75.1230 c3         1 EEZ      -0.116100
     13 C21        -19.0830     5.2250    74.7130 ca         1 EEZ      -0.033300
     14 C22        -19.2340     6.4560    74.0720 ca         1 EEZ      -0.115500
     15 C23        -20.4930     6.9220    73.7220 ca         1 EEZ      -0.012000
     16 C24        -21.6100     6.1490    74.0260 ca         1 EEZ      -0.264500
     17 C25        -21.4830     4.9250    74.6730 ca         1 EEZ      -0.012000
     18 C26        -20.2170     4.4670    75.0070 ca         1 EEZ      -0.115500
     19 C28        -23.5890     8.0210    74.7830 c3         1 EEZ      -0.296400
     20 C29        -23.6380     7.5200    76.2170 c3         1 EEZ      -0.066100
     21 N4         -17.8950     2.6760    80.8180 nb         1 EEZ      -0.718000
     22 C5         -17.9110     2.8070    79.4930 ca         1 EEZ       0.330900
     23 C6         -17.5910     3.9930    78.8390 ca         1 EEZ      -0.108000
     24 O7         -17.5290     3.5990    82.9130 os         1 EEZ      -0.457300
     25 CL8        -16.8190     6.2980    82.0130 cl         1 EEZ      -0.170000
     26 N9         -17.6450     4.0080    77.4380 ns         1 EEZ      -0.138000
     27 C10        -18.1400     2.4330    83.5250 c3         1 EEZ       0.230600
     28 O19        -17.1840     6.1920    76.9590 o          1 EEZ      -0.575100
     29 S27        -23.2230     6.7410    73.5850 sy         1 EEZ       1.059500
     30 O30        -23.1410     7.3700    72.2770 o          1 EEZ      -0.527500
     31 O31        -24.1670     5.6490    73.7610 o          1 EEZ      -0.527500
     32 H1         -16.9880     6.0380    79.1760 ha         1 EEZ       0.170000
     33 H2         -19.7910     4.5910    83.7490 ha         1 EEZ       0.118000
     34 H3         -22.2520     4.6450    83.5750 ha         1 EEZ       0.113000
     35 H4         -23.5110     2.5630    83.1010 ha         1 EEZ       0.112000
     36 H5         -22.2860     0.4290    82.7990 ha         1 EEZ       0.113000
     37 H6         -19.8200     0.3860    82.9610 ha         1 EEZ       0.118000
     38 H7         -18.1070     1.5870    85.4940 hc         1 EEZ       0.051367
     39 H8         -16.6020     2.4070    85.0370 hc         1 EEZ       0.051367
     40 H9         -18.0410     3.3570    85.4730 hc         1 EEZ       0.051367
     41 H10        -17.6330     3.6610    74.9460 hc         1 EEZ       0.076200
     42 H11        -16.9430     5.2420    74.5490 hc         1 EEZ       0.076200
     43 H12        -18.3590     7.0480    73.8370 ha         1 EEZ       0.121000
     44 H13        -20.6040     7.8690    73.2130 ha         1 EEZ       0.138000
     45 H14        -22.3610     4.3390    74.9000 ha         1 EEZ       0.138000
     46 H15        -20.1100     3.5090    75.5010 ha         1 EEZ       0.121000
     47 H16        -22.8300     8.7900    74.6320 h1         1 EEZ       0.099700
     48 H17        -24.5520     8.4140    74.4460 h1         1 EEZ       0.099700
     49 H18        -23.9010     8.3500    76.8730 hc         1 EEZ       0.050700
     50 H19        -24.3880     6.7380    76.3340 hc         1 EEZ       0.050700
     51 H20        -22.6710     7.1300    76.5340 hc         1 EEZ       0.050700
     52 H21        -18.1930     1.9290    78.9210 h4         1 EEZ       0.019100
     53 H22        -17.8780     3.1230    77.0110 hn         1 EEZ       0.152000
     54 H23        -17.7600     1.5420    83.0260 h1         1 EEZ       0.069700
@<TRIPOS>BOND
     1     1     2 ar  
     2     1    23 ar  
     3     1    32 1   
     4     2     3 ar  
     5     2    25 1   
     6     3    21 ar  
     7     3    24 1   
     8     4     5 ar  
     9     4     9 ar  
    10     4    27 1   
    11     5     6 ar  
    12     5    33 1   
    13     6     7 ar  
    14     6    34 1   
    15     7     8 ar  
    16     7    35 1   
    17     8     9 ar  
    18     8    36 1   
    19     9    37 1   
    20    10    27 1   
    21    10    38 1   
    22    10    39 1   
    23    10    40 1   
    24    11    12 1   
    25    11    26 1   
    26    11    28 2   
    27    12    13 1   
    28    12    41 1   
    29    12    42 1   
    30    13    14 ar  
    31    13    18 ar  
    32    14    15 ar  
    33    14    43 1   
    34    15    16 ar  
    35    15    44 1   
    36    16    17 ar  
    37    16    29 1   
    38    17    18 ar  
    39    17    45 1   
    40    18    46 1   
    41    19    20 1   
    42    19    29 1   
    43    19    47 1   
    44    19    48 1   
    45    20    49 1   
    46    20    50 1   
    47    20    51 1   
    48    21    22 ar  
    49    22    23 ar  
    50    22    52 1   
    51    23    26 1   
    52    24    27 1   
    53    26    53 1   
    54    27    54 1   
    55    29    30 2   
    56    29    31 2   
@<TRIPOS>SUBSTRUCTURE
     1 EEZ         1 TEMP              0 ****  ****    0 ROOT
