@<TRIPOS>MOLECULE
EEZ
   54    56     1     0     0
SMALL
No Charge or Current Charge


@<TRIPOS>ATOM
      1 C1         -17.1780     5.0220    79.7340 ca         1 EEZ      -0.061000
      2 C2         -17.1280     4.7670    81.1140 ca         1 EEZ       0.063000
      3 C3         -17.4460     3.4730    81.5910 ca         1 EEZ       0.579300
      4 C11        -19.6400     2.5880    83.4730 ca         1 EEZ      -0.114300
      5 C12        -20.0930     3.8400    83.9420 ca         1 EEZ      -0.089500
      6 C13        -21.4520     4.1860    83.8460 ca         1 EEZ      -0.114500
      7 C14        -22.3690     3.2860    83.2800 ca         1 EEZ      -0.104000
      8 C15        -21.9260     2.0390    82.8080 ca         1 EEZ      -0.114500
      9 C16        -20.5680     1.6910    82.9030 ca         1 EEZ      -0.089500
     10 C17        -17.6790     2.0860    85.0240 c3         1 EEZ      -0.089100
     11 C18        -17.4320     5.1900    76.6000 c          1 EEZ       0.605100
     12 C20        -17.6530     4.8810    75.1150 c3         1 EEZ      -0.116100
     13 C21        -19.0330     5.3540    74.6710 ca         1 EEZ      -0.033300
     14 C22        -19.2180     6.6690    74.2070 ca         1 EEZ      -0.115500
     15 C23        -20.4900     7.1120    73.8050 ca         1 EEZ      -0.012000
     16 C24        -21.5930     6.2360    73.8640 ca         1 EEZ      -0.264500
     17 C25        -21.4120     4.9170    74.3310 ca         1 EEZ      -0.012000
     18 C26        -20.1370     4.4820    74.7310 ca         1 EEZ      -0.115500
     19 C28        -23.8410     7.6830    74.8280 c3         1 EEZ      -0.296400
     20 C29        -23.9310     6.7960    76.0950 c3         1 EEZ      -0.066100
     21 N4         -17.7740     2.4540    80.7610 nb         1 EEZ      -0.718000
     22 C5         -17.8210     2.7070    79.4350 ca         1 EEZ       0.330900
     23 C6         -17.5360     3.9670    78.8650 ca         1 EEZ      -0.108000
     24 O7         -17.3700     3.2340    82.9460 os         1 EEZ      -0.457300
     25 Cl8        -16.6840     6.0740    82.2190 cl         1 EEZ      -0.170000
     26 N9         -17.6240     4.1040    77.4470 ns         1 EEZ      -0.138000
     27 C10        -18.1610     2.2050    83.5660 c3         1 EEZ       0.230600
     28 O19        -17.1270     6.3140    76.9820 o          1 EEZ      -0.575100
     29 S27        -23.2290     6.8120    73.3630 sy         1 EEZ       1.059500
     30 O30        -23.0640     7.8300    72.3170 o          1 EEZ      -0.527500
     31 O31        -24.1020     5.6480    73.1560 o          1 EEZ      -0.527500
     32 H1         -16.9390     6.0180    79.3750 ha         1 EEZ       0.170000
     33 H2         -19.3900     4.5470    84.3770 ha         1 EEZ       0.118000
     34 H3         -21.7930     5.1530    84.2090 ha         1 EEZ       0.113000
     35 H4         -23.4210     3.5540    83.2050 ha         1 EEZ       0.112000
     36 H5         -22.6350     1.3420    82.3670 ha         1 EEZ       0.113000
     37 H6         -20.2350     0.7250    82.5310 ha         1 EEZ       0.118000
     38 H7         -18.2690     1.3330    85.5590 hc         1 EEZ       0.051367
     39 H8         -16.6270     1.7790    85.0540 hc         1 EEZ       0.051367
     40 H9         -17.7770     3.0410    85.5520 hc         1 EEZ       0.051367
     41 H10        -17.5730     3.8010    74.9450 hc         1 EEZ       0.076200
     42 H11        -16.8830     5.3970    74.5310 hc         1 EEZ       0.076200
     43 H12        -18.3750     7.3550    74.1600 ha         1 EEZ       0.121000
     44 H13        -20.6120     8.1350    73.4520 ha         1 EEZ       0.138000
     45 H14        -22.2520     4.2270    74.3880 ha         1 EEZ       0.138000
     46 H15        -20.0110     3.4630    75.0900 ha         1 EEZ       0.121000
     47 H16        -23.1600     8.5240    75.0030 h1         1 EEZ       0.099700
     48 H17        -24.8300     8.0760    74.5690 h1         1 EEZ       0.099700
     49 H18        -24.3310     7.3760    76.9360 hc         1 EEZ       0.050700
     50 H19        -24.5940     5.9380    75.9300 hc         1 EEZ       0.050700
     51 H20        -22.9430     6.4200    76.3870 hc         1 EEZ       0.050700
     52 H21        -18.0960     1.8660    78.8000 h4         1 EEZ       0.019100
     53 H22        -17.8800     3.2490    76.9680 hn         1 EEZ       0.152000
     54 H23        -17.9950     1.2360    83.0750 h1         1 EEZ       0.069700
@<TRIPOS>BOND
     1     1     2 ar  
     2     1    23 ar  
     3     1    32 1   
     4     2     3 ar  
     5     2    25 1   
     6     3    21 ar  
     7     3    24 1   
     8     4     5 ar  
     9     4     9 ar  
    10     4    27 1   
    11     5     6 ar  
    12     5    33 1   
    13     6     7 ar  
    14     6    34 1   
    15     7     8 ar  
    16     7    35 1   
    17     8     9 ar  
    18     8    36 1   
    19     9    37 1   
    20    10    27 1   
    21    10    38 1   
    22    10    39 1   
    23    10    40 1   
    24    11    12 1   
    25    11    26 1   
    26    11    28 2   
    27    12    13 1   
    28    12    41 1   
    29    12    42 1   
    30    13    14 ar  
    31    13    18 ar  
    32    14    15 ar  
    33    14    43 1   
    34    15    16 ar  
    35    15    44 1   
    36    16    17 ar  
    37    16    29 1   
    38    17    18 ar  
    39    17    45 1   
    40    18    46 1   
    41    19    20 1   
    42    19    29 1   
    43    19    47 1   
    44    19    48 1   
    45    20    49 1   
    46    20    50 1   
    47    20    51 1   
    48    21    22 ar  
    49    22    23 ar  
    50    22    52 1   
    51    23    26 1   
    52    24    27 1   
    53    26    53 1   
    54    27    54 1   
    55    29    30 2   
    56    29    31 2   
@<TRIPOS>SUBSTRUCTURE
     1 EEZ         1 TEMP              0 ****  ****    0 ROOT
