@<TRIPOS>MOLECULE
EF0
   31    31     1     0     0
SMALL
No Charge or Current Charge


@<TRIPOS>ATOM
      1 N1          30.8080    42.0720    26.8600 n          1 EF0      -0.385800
      2 C4          28.4340    42.8840    26.6880 c6         1 EF0      -0.076400
      3 C5          28.0770    42.1730    28.0230 c6         1 EF0      -0.188700
      4 C6          31.5380    41.4940    25.7890 c          1 EF0       0.612100
      5 C7          32.6970    40.5050    26.0810 c3         1 EF0      -0.128700
      6 C8          32.4010    39.1180    25.4720 c3         1 EF0       0.083600
      7 C10         26.5790    41.7830    28.1050 c          1 EF0       0.724000
      8 C1          29.0210    40.9560    28.2380 c6         1 EF0      -0.076400
      9 C2          30.5120    41.3660    28.1410 c6         1 EF0       0.088000
     10 C3          29.9340    43.2590    26.6490 c6         1 EF0       0.088000
     11 C9          34.0420    41.0680    25.5600 c3         1 EF0      -0.081100
     12 O1          31.3140    41.8400    24.6330 o          1 EF0      -0.638100
     13 O2          25.9050    42.2870    28.9910 o          1 EF0      -0.734000
     14 O3          26.1350    40.9950    27.2830 o          1 EF0      -0.734000
     15 S1          30.9240    38.2750    26.2010 sh         1 EF0      -0.413800
     16 H1          27.8240    43.7900    26.5690 hc         1 EF0       0.055200
     17 H2          28.2000    42.2320    25.8360 hc         1 EF0       0.055200
     18 H3          28.2680    42.8850    28.8380 hc         1 EF0       0.019700
     19 H4          32.8200    40.3740    27.1580 hc         1 EF0       0.068700
     20 H5          33.2680    38.4620    25.6270 h1         1 EF0       0.058700
     21 H6          32.2460    39.2150    24.3890 h1         1 EF0       0.058700
     22 H7          28.8100    40.1840    27.4860 hc         1 EF0       0.055200
     23 H8          28.8270    40.4990    29.2170 hc         1 EF0       0.055200
     24 H9          31.1170    40.4610    28.2640 h1         1 EF0       0.034700
     25 H10         30.7600    42.0360    28.9760 h1         1 EF0       0.034700
     26 H11         30.1670    43.7510    25.6940 h1         1 EF0       0.034700
     27 H12         30.1440    43.9910    27.4410 h1         1 EF0       0.034700
     28 H13         34.2470    42.0490    26.0060 hc         1 EF0       0.035700
     29 H14         34.8700    40.3980    25.8200 hc         1 EF0       0.035700
     30 H15         34.0260    41.1840    24.4690 hc         1 EF0       0.035700
     31 H17         31.0060    37.1510    25.4480 hs         1 EF0       0.190800
@<TRIPOS>BOND
     1     1     4 1   
     2     1     9 1   
     3     1    10 1   
     4     2     3 1   
     5     2    10 1   
     6     2    16 1   
     7     2    17 1   
     8     3     7 1   
     9     3     8 1   
    10     3    18 1   
    11     4     5 1   
    12     4    12 2   
    13     5     6 1   
    14     5    11 1   
    15     5    19 1   
    16     6    15 1   
    17     6    20 1   
    18     6    21 1   
    19     7    13 1   
    20     7    14 1   
    21     8     9 1   
    22     8    22 1   
    23     8    23 1   
    24     9    24 1   
    25     9    25 1   
    26    10    26 1   
    27    10    27 1   
    28    11    28 1   
    29    11    29 1   
    30    11    30 1   
    31    15    31 1   
@<TRIPOS>SUBSTRUCTURE
     1 EF0         1 TEMP              0 ****  ****    0 ROOT
