@<TRIPOS>MOLECULE
EF0
   31    31     1     0     0
SMALL
abcg2


@<TRIPOS>ATOM
      1 N1          30.8230    42.1680    26.7560 n          1 EF0      -0.385800
      2 C4          28.4270    42.5860    26.5060 c6         1 EF0      -0.076400
      3 C5          28.1690    42.1210    27.9360 c6         1 EF0      -0.188700
      4 C6          31.5590    41.5380    25.8170 c          1 EF0       0.612100
      5 C7          32.5260    40.4290    26.2230 c3         1 EF0      -0.128700
      6 C8          32.2390    39.1730    25.4060 c3         1 EF0       0.083600
      7 C10         26.7710    41.4890    28.1430 c          1 EF0       0.724000
      8 C1          29.2910    41.1940    28.4070 c6         1 EF0      -0.076400
      9 C2          30.6680    41.7970    28.1540 c6         1 EF0       0.088000
     10 C3          29.8320    43.1560    26.3530 c6         1 EF0       0.088000
     11 C9          33.9590    40.8990    25.9690 c3         1 EF0      -0.081100
     12 O1          31.5110    41.8540    24.6330 o          1 EF0      -0.638100
     13 O2          26.5940    40.8820    29.2190 o          1 EF0      -0.734000
     14 O3          25.9280    41.6450    27.2370 o          1 EF0      -0.734000
     15 S1          30.5730    38.5420    25.8100 sh         1 EF0      -0.413800
     16 H1          27.7030    43.3490    26.2180 hc         1 EF0       0.055200
     17 H2          28.3040    41.7530    25.8060 hc         1 EF0       0.055200
     18 H3          28.2060    43.0150    28.5780 hc         1 EF0       0.019700
     19 H4          32.4430    40.1650    27.2760 hc         1 EF0       0.068700
     20 H5          32.9800    38.4100    25.6430 h1         1 EF0       0.058700
     21 H6          32.2950    39.3900    24.3400 h1         1 EF0       0.058700
     22 H7          29.2290    40.2320    27.8890 hc         1 EF0       0.055200
     23 H8          29.1870    40.9900    29.4740 hc         1 EF0       0.055200
     24 H9          31.4510    41.1170    28.4740 h1         1 EF0       0.034700
     25 H10         30.7860    42.7070    28.7520 h1         1 EF0       0.034700
     26 H11         30.0250    43.4720    25.3320 h1         1 EF0       0.034700
     27 H12         29.9500    44.0340    26.9970 h1         1 EF0       0.034700
     28 H13         34.1890    41.7930    26.5500 hc         1 EF0       0.035700
     29 H14         34.6670    40.1230    26.2590 hc         1 EF0       0.035700
     30 H15         34.1170    41.1280    24.9150 hc         1 EF0       0.035700
     31 H17         30.5190    37.5820    24.8800 hs         1 EF0       0.190800
@<TRIPOS>BOND
     1     1     4 1   
     2     1     9 1   
     3     1    10 1   
     4     2     3 1   
     5     2    10 1   
     6     2    16 1   
     7     2    17 1   
     8     3     7 1   
     9     3     8 1   
    10     3    18 1   
    11     4     5 1   
    12     4    12 2   
    13     5     6 1   
    14     5    11 1   
    15     5    19 1   
    16     6    15 1   
    17     6    20 1   
    18     6    21 1   
    19     7    13 1   
    20     7    14 1   
    21     8     9 1   
    22     8    22 1   
    23     8    23 1   
    24     9    24 1   
    25     9    25 1   
    26    10    26 1   
    27    10    27 1   
    28    11    28 1   
    29    11    29 1   
    30    11    30 1   
    31    15    31 1   
@<TRIPOS>SUBSTRUCTURE
     1 EF0         1 TEMP              0 ****  ****    0 ROOT
