@<TRIPOS>MOLECULE
EF1
   62    62     1     0     0
SMALL
abcg2


@<TRIPOS>ATOM
      1 O23          4.9330   -17.1950     4.5180 o          1 EF1      -0.755500
      2 C21          3.9360   -17.8090     4.0540 c          1 EF1       0.730000
      3 O22          2.7670   -17.7620     4.5210 o          1 EF1      -0.755500
      4 C20          4.1510   -18.6430     2.7700 c3         1 EF1      -0.139700
      5 C24          3.5130   -17.9210     1.5690 c3         1 EF1      -0.048400
      6 C25          4.0400   -16.5090     1.3230 c3         1 EF1      -0.076400
      7 C26          3.3700   -15.7900     0.1480 c3         1 EF1      -0.062400
      8 C27          3.5310   -16.4720    -1.2150 c3         1 EF1      -0.063400
      9 C28          4.9730   -16.7040    -1.6580 c3         1 EF1       0.146800
     10 N29          5.7200   -15.4400    -1.7530 n8         1 EF1      -0.989200
     11 C17          3.5780   -20.0640     2.8860 c3         1 EF1      -0.406400
     12 P13          4.6170   -21.2170     3.8580 p5         1 EF1       1.380000
     13 O18          5.8150   -21.6220     3.0250 o          1 EF1      -0.809000
     14 O19          4.8690   -20.6400     5.2340 o          1 EF1      -0.809000
     15 C12          3.5890   -22.7510     4.1350 c3         1 EF1      -0.228300
     16 C14          3.3860   -23.7140     2.9460 c3         1 EF1      -0.049700
     17 C16          2.3360   -23.2480     1.9360 c3         1 EF1      -0.081100
     18 C15          3.0380   -25.1160     3.4540 c3         1 EF1      -0.081100
     19 N10          2.3390   -22.4240     4.8040 ns         1 EF1      -0.436900
     20 C9           2.0110   -22.7950     6.0540 c          1 EF1       0.602100
     21 O11          2.7360   -23.4940     6.7700 o          1 EF1      -0.656100
     22 C8           0.6600   -22.3110     6.5440 c3         1 EF1      -0.157400
     23 C7          -0.2800   -23.4890     6.8510 c3         1 EF1      -0.023100
     24 C1          -0.5160   -24.3920     5.6650 ca         1 EF1      -0.060300
     25 C6          -1.0550   -23.8930     4.4760 ca         1 EF1      -0.100000
     26 C2          -0.1810   -25.7450     5.7220 ca         1 EF1      -0.100000
     27 C3          -0.3830   -26.5810     4.6270 ca         1 EF1      -0.113500
     28 C4          -0.9180   -26.0710     3.4500 ca         1 EF1      -0.123000
     29 C5          -1.2530   -24.7210     3.3780 ca         1 EF1      -0.113500
     30 H2           5.2280   -18.6970     2.5930 hc         1 EF1       0.041700
     31 H3           2.4280   -17.8830     1.7190 hc         1 EF1       0.004700
     32 H4           3.6820   -18.5360     0.6810 hc         1 EF1       0.004700
     33 H5           5.1220   -16.5520     1.1640 hc         1 EF1       0.055200
     34 H6           3.8930   -15.9060     2.2240 hc         1 EF1       0.055200
     35 H7           3.7700   -14.7750     0.0850 hc         1 EF1       0.021700
     36 H8           2.3000   -15.6880     0.3580 hc         1 EF1       0.021700
     37 H9           3.0260   -15.8640    -1.9740 hc         1 EF1       0.019200
     38 H10          3.0200   -17.4390    -1.2140 hc         1 EF1       0.019200
     39 H11          5.4880   -17.3410    -0.9340 h1         1 EF1       0.031700
     40 H12          4.9600   -17.2560    -2.6070 h1         1 EF1       0.031700
     41 H13          6.6670   -15.6240    -2.0700 hn         1 EF1       0.372000
     42 H15          5.2960   -14.8510    -2.4640 hn         1 EF1       0.372000
     43 H16          2.5770   -20.0040     3.3190 hc         1 EF1       0.022200
     44 H17          3.4770   -20.4910     1.8860 hc         1 EF1       0.022200
     45 H19          4.1900   -23.2780     4.8790 h1         1 EF1       0.084700
     46 H20          4.3530   -23.7630     2.4380 hc         1 EF1       0.069700
     47 H21          2.5760   -22.2770     1.5060 hc         1 EF1       0.017033
     48 H22          2.2620   -23.9670     1.1170 hc         1 EF1       0.017033
     49 H23          1.3480   -23.1820     2.3990 hc         1 EF1       0.017033
     50 H24          3.8170   -25.5010     4.1150 hc         1 EF1       0.017033
     51 H25          2.0970   -25.1070     4.0080 hc         1 EF1       0.017033
     52 H26          2.9240   -25.8120     2.6190 hc         1 EF1       0.017033
     53 H27          1.6770   -21.8490     4.3100 hn         1 EF1       0.300500
     54 H28          0.8260   -21.7380     7.4590 hc         1 EF1       0.061700
     55 H29          0.2010   -21.6420     5.8160 hc         1 EF1       0.061700
     56 H30         -1.2310   -23.0790     7.2020 hc         1 EF1       0.041200
     57 H31          0.1380   -24.0750     7.6700 hc         1 EF1       0.041200
     58 H32         -1.3170   -22.8440     4.4050 ha         1 EF1       0.113000
     59 H33          0.2490   -26.1450     6.6330 ha         1 EF1       0.113000
     60 H34         -0.1130   -27.6280     4.6930 ha         1 EF1       0.099500
     61 H35         -1.0690   -26.7170     2.5940 ha         1 EF1       0.096000
     62 H36         -1.6670   -24.3130     2.4640 ha         1 EF1       0.099500
@<TRIPOS>BOND
     1     1     2 1   
     2     2     3 1   
     3     2     4 1   
     4     4     5 1   
     5     4    11 1   
     6     4    30 1   
     7     5     6 1   
     8     5    31 1   
     9     5    32 1   
    10     6     7 1   
    11     6    33 1   
    12     6    34 1   
    13     7     8 1   
    14     7    35 1   
    15     7    36 1   
    16     8     9 1   
    17     8    37 1   
    18     8    38 1   
    19     9    10 1   
    20     9    39 1   
    21     9    40 1   
    22    10    41 1   
    23    10    42 1   
    24    11    12 1   
    25    11    43 1   
    26    11    44 1   
    27    12    13 1   
    28    12    14 1   
    29    12    15 1   
    30    15    16 1   
    31    15    19 1   
    32    15    45 1   
    33    16    17 1   
    34    16    18 1   
    35    16    46 1   
    36    17    47 1   
    37    17    48 1   
    38    17    49 1   
    39    18    50 1   
    40    18    51 1   
    41    18    52 1   
    42    19    20 1   
    43    19    53 1   
    44    20    21 2   
    45    20    22 1   
    46    22    23 1   
    47    22    54 1   
    48    22    55 1   
    49    23    24 1   
    50    23    56 1   
    51    23    57 1   
    52    24    25 ar  
    53    24    26 ar  
    54    25    29 ar  
    55    25    58 1   
    56    26    27 ar  
    57    26    59 1   
    58    27    28 ar  
    59    27    60 1   
    60    28    29 ar  
    61    28    61 1   
    62    29    62 1   
@<TRIPOS>SUBSTRUCTURE
     1 EF1         1 TEMP              0 ****  ****    0 ROOT
