@<TRIPOS>MOLECULE
EF1
   62    62     1     0     0
SMALL
No Charge or Current Charge


@<TRIPOS>ATOM
      1 O23          5.5150   -17.3040     4.4840 o          1 EF1      -0.755500
      2 C21          4.4100   -17.6780     4.1170 c          1 EF1       0.730000
      3 O22          3.3710   -17.3160     4.6550 o          1 EF1      -0.755500
      4 C20          4.3260   -18.6010     2.8590 c3         1 EF1      -0.139700
      5 C24          3.5890   -17.9080     1.6790 c3         1 EF1      -0.048400
      6 C25          4.2370   -16.5770     1.2190 c3         1 EF1      -0.076400
      7 C26          3.4860   -15.8580     0.0680 c3         1 EF1      -0.062400
      8 C27          3.3790   -16.6430    -1.2680 c3         1 EF1      -0.063400
      9 C28          4.7240   -17.0370    -1.9260 c3         1 EF1       0.146800
     10 N29          5.5170   -15.8630    -2.3460 n8         1 EF1      -0.989200
     11 C17          3.7070   -20.0110     3.1550 c3         1 EF1      -0.406400
     12 P13          4.5700   -21.0480     4.4270 p5         1 EF1       1.380000
     13 O18          5.9580   -21.3570     3.9570 o          1 EF1      -0.809000
     14 O19          4.5570   -20.3600     5.7570 o          1 EF1      -0.809000
     15 C12          3.5520   -22.6270     4.5240 c3         1 EF1      -0.228300
     16 C14          3.4610   -23.4700     3.2110 c3         1 EF1      -0.049700
     17 C16          2.1820   -23.2040     2.3740 c3         1 EF1      -0.081100
     18 C15          3.6000   -24.9810     3.5120 c3         1 EF1      -0.081100
     19 N10          2.2260   -22.4840     5.1970 ns         1 EF1      -0.436900
     20 C9           1.8830   -23.0130     6.4270 c          1 EF1       0.602100
     21 O11          2.6680   -23.6490     7.1200 o          1 EF1      -0.656100
     22 C8           0.4530   -22.7010     6.8830 c3         1 EF1      -0.157400
     23 C7          -0.4550   -23.9490     6.8140 c3         1 EF1      -0.023100
     24 C1          -0.6550   -24.4550     5.3900 ca         1 EF1      -0.060300
     25 C6          -1.4890   -23.7530     4.4970 ca         1 EF1      -0.100000
     26 C2          -0.0080   -25.6270     4.9520 ca         1 EF1      -0.100000
     27 C3          -0.1920   -26.0920     3.6380 ca         1 EF1      -0.113500
     28 C4          -1.0260   -25.3880     2.7540 ca         1 EF1      -0.123000
     29 C5          -1.6740   -24.2180     3.1840 ca         1 EF1      -0.113500
     30 H2           5.3570   -18.7790     2.5260 hc         1 EF1       0.041700
     31 H3           2.5450   -17.7220     1.9600 hc         1 EF1       0.004700
     32 H4           3.5670   -18.6020     0.8300 hc         1 EF1       0.004700
     33 H5           5.2760   -16.7620     0.9210 hc         1 EF1       0.055200
     34 H6           4.2810   -15.8870     2.0700 hc         1 EF1       0.055200
     35 H7           3.9780   -14.8970    -0.1210 hc         1 EF1       0.021700
     36 H8           2.4720   -15.6170     0.4100 hc         1 EF1       0.021700
     37 H9           2.8010   -16.0400    -1.9800 hc         1 EF1       0.019200
     38 H10          2.7900   -17.5530    -1.1050 hc         1 EF1       0.019200
     39 H11          5.3210   -17.6450    -1.2330 h1         1 EF1       0.031700
     40 H12          4.5180   -17.6470    -2.8170 h1         1 EF1       0.031700
     41 H13          6.3440   -16.1860    -2.8630 hn         1 EF1       0.372000
     42 H15          4.9820   -15.3340    -3.0430 hn         1 EF1       0.372000
     43 H16          2.6630   -19.9060     3.4690 hc         1 EF1       0.022200
     44 H17          3.7180   -20.5980     2.2310 hc         1 EF1       0.022200
     45 H19          4.2160   -23.1690     5.2080 h1         1 EF1       0.084700
     46 H20          4.3210   -23.2030     2.5830 hc         1 EF1       0.069700
     47 H21          2.0450   -22.1370     2.1710 hc         1 EF1       0.017033
     48 H22          2.2410   -23.7230     1.4100 hc         1 EF1       0.017033
     49 H23          1.2880   -23.5660     2.8940 hc         1 EF1       0.017033
     50 H24          4.5540   -25.1920     4.0100 hc         1 EF1       0.017033
     51 H25          2.7890   -25.3250     4.1650 hc         1 EF1       0.017033
     52 H26          3.5670   -25.5660     2.5850 hc         1 EF1       0.017033
     53 H27          1.4940   -21.9730     4.7160 hn         1 EF1       0.300500
     54 H28          0.4870   -22.3640     7.9250 hc         1 EF1       0.061700
     55 H29          0.0160   -21.9150     6.2560 hc         1 EF1       0.061700
     56 H30         -1.4300   -23.6990     7.2520 hc         1 EF1       0.041200
     57 H31         -0.0340   -24.7390     7.4490 hc         1 EF1       0.041200
     58 H32         -1.9960   -22.8470     4.8220 ha         1 EF1       0.113000
     59 H33          0.6430   -26.1770     5.6290 ha         1 EF1       0.113000
     60 H34          0.3130   -26.9960     3.3060 ha         1 EF1       0.099500
     61 H35         -1.1680   -25.7470     1.7370 ha         1 EF1       0.096000
     62 H36         -2.3190   -23.6720     2.4990 ha         1 EF1       0.099500
@<TRIPOS>BOND
     1     1     2 1   
     2     2     3 1   
     3     2     4 1   
     4     4     5 1   
     5     4    11 1   
     6     4    30 1   
     7     5     6 1   
     8     5    31 1   
     9     5    32 1   
    10     6     7 1   
    11     6    33 1   
    12     6    34 1   
    13     7     8 1   
    14     7    35 1   
    15     7    36 1   
    16     8     9 1   
    17     8    37 1   
    18     8    38 1   
    19     9    10 1   
    20     9    39 1   
    21     9    40 1   
    22    10    41 1   
    23    10    42 1   
    24    11    12 1   
    25    11    43 1   
    26    11    44 1   
    27    12    13 1   
    28    12    14 1   
    29    12    15 1   
    30    15    16 1   
    31    15    19 1   
    32    15    45 1   
    33    16    17 1   
    34    16    18 1   
    35    16    46 1   
    36    17    47 1   
    37    17    48 1   
    38    17    49 1   
    39    18    50 1   
    40    18    51 1   
    41    18    52 1   
    42    19    20 1   
    43    19    53 1   
    44    20    21 2   
    45    20    22 1   
    46    22    23 1   
    47    22    54 1   
    48    22    55 1   
    49    23    24 1   
    50    23    56 1   
    51    23    57 1   
    52    24    25 ar  
    53    24    26 ar  
    54    25    29 ar  
    55    25    58 1   
    56    26    27 ar  
    57    26    59 1   
    58    27    28 ar  
    59    27    60 1   
    60    28    29 ar  
    61    28    61 1   
    62    29    62 1   
@<TRIPOS>SUBSTRUCTURE
     1 EF1         1 TEMP              0 ****  ****    0 ROOT
