@<TRIPOS>MOLECULE
EF2
   29    31     1     0     0
SMALL
bcc


@<TRIPOS>ATOM
      1 O01          1.2640     0.3830     2.0250 o          1 EF2      -0.576500
      2 C02          1.8670     0.1150     1.0140 c          1 EF2       0.713500
      3 N03          3.2060     0.3870     0.8850 ns         1 EF2      -0.612500
      4 C04          4.0360     0.1100    -0.1860 c          1 EF2       0.722500
      5 O05          5.2120     0.3830    -0.1240 o          1 EF2      -0.585500
      6 C06          3.3900    -0.5540    -1.3670 c6         1 EF2      -0.163400
      7 C07          1.9100    -0.2340    -1.4870 c6         1 EF2      -0.085400
      8 C08          1.2210    -0.5800    -0.1740 c6         1 EF2       0.037700
      9 N09         -0.1930    -0.3280    -0.1710 n          1 EF2      -0.520400
     10 C11         -4.5410     1.1730    -0.0920 ca         1 EF2      -0.114500
     11 C12         -3.2410     1.6670    -0.1780 ca         1 EF2      -0.061000
     12 C13         -2.2160     0.7460    -0.1550 ca         1 EF2      -0.141600
     13 C14         -2.4620    -0.6140    -0.0510 ca         1 EF2      -0.141600
     14 C19         -3.7430    -1.1150     0.0360 ca         1 EF2      -0.061000
     15 C20         -4.7880    -0.1930     0.0140 ca         1 EF2      -0.114500
     16 C3          -1.1600    -1.3190    -0.0490 c          1 EF2       0.738600
     17 C4          -0.7510     0.9430    -0.2230 c          1 EF2       0.738600
     18 H03          3.6490     0.8150     1.6920 hn         1 EF2       0.333500
     19 H08          1.3460    -1.6550     0.0050 h1         1 EF2       0.101700
     20 H061         3.9320    -0.2570    -2.2640 hc         1 EF2       0.082700
     21 H062         3.5370    -1.6330    -1.2530 hc         1 EF2       0.082700
     22 H071         1.7700     0.8190    -1.7320 hc         1 EF2       0.072700
     23 H072         1.4670    -0.8200    -2.2910 hc         1 EF2       0.072700
     24 H11         -5.3740     1.8620    -0.1070 ha         1 EF2       0.142000
     25 H12         -3.0510     2.7290    -0.2600 ha         1 EF2       0.157500
     26 H20         -5.8090    -0.5430     0.0810 ha         1 EF2       0.142000
     27 H19         -3.9340    -2.1760     0.1180 ha         1 EF2       0.157500
     28 O16         -0.1270     1.9690    -0.3090 o          1 EF2      -0.557500
     29 O18         -0.9400    -2.4990     0.0370 o          1 EF2      -0.557500
@<TRIPOS>BOND
     1     1     2 2   
     2     2     3 1   
     3     2     8 1   
     4     3     4 1   
     5     3    18 1   
     6     4     5 2   
     7     4     6 1   
     8     6     7 1   
     9     6    20 1   
    10     6    21 1   
    11     7     8 1   
    12     7    22 1   
    13     7    23 1   
    14     8     9 1   
    15     8    19 1   
    16     9    16 1   
    17     9    17 1   
    18    10    11 ar  
    19    10    15 ar  
    20    10    24 1   
    21    11    12 ar  
    22    11    25 1   
    23    12    13 ar  
    24    12    17 1   
    25    13    14 ar  
    26    13    16 1   
    27    14    15 ar  
    28    14    27 1   
    29    15    26 1   
    30    16    29 2   
    31    17    28 2   
@<TRIPOS>SUBSTRUCTURE
     1 EF2         1 TEMP              0 ****  ****    0 ROOT
