@<TRIPOS>MOLECULE
EF2
   29    31     1     0     0
SMALL
No Charge or Current Charge


@<TRIPOS>ATOM
      1 O01          1.5590     0.4540     2.1670 o          1 EF2      -0.501000
      2 C02          2.0390     0.1950     1.0740 c          1 EF2       0.571000
      3 N03          3.3320     0.5430     0.7920 ns         1 EF2      -0.478500
      4 C04          4.0890     0.2250    -0.2980 c          1 EF2       0.580000
      5 O05          5.2240     0.6520    -0.4200 o          1 EF2      -0.510000
      6 C06          3.4230    -0.6390    -1.3740 c6         1 EF2      -0.163400
      7 C07          1.8850    -0.4750    -1.4310 c6         1 EF2      -0.085400
      8 C08          1.2480    -0.5790    -0.0210 c6         1 EF2       0.037700
      9 N09         -0.2170    -0.3040    -0.0740 n          1 EF2      -0.386400
     10 C11         -4.6210     1.2070    -0.0650 ca         1 EF2      -0.096500
     11 C12         -3.2990     1.6980    -0.0020 ca         1 EF2      -0.043000
     12 C13         -2.2520     0.7660    -0.0420 ca         1 EF2      -0.141600
     13 C14         -2.4970    -0.5970    -0.1410 ca         1 EF2      -0.141600
     14 C19         -3.8020    -1.1060    -0.2040 ca         1 EF2      -0.043000
     15 C20         -4.8700    -0.1840    -0.1650 ca         1 EF2      -0.096500
     16 C3          -1.1870    -1.3070    -0.1580 c          1 EF2       0.596100
     17 C4          -0.7770     0.9760     0.0040 c          1 EF2       0.596100
     18 H03          3.8010     1.0830     1.5030 hn         1 EF2       0.333500
     19 H08          1.3780    -1.6250     0.2950 h1         1 EF2       0.101700
     20 H061         3.9150    -0.4810    -2.3420 hc         1 EF2       0.082700
     21 H062         3.6220    -1.6790    -1.0800 hc         1 EF2       0.082700
     22 H071         1.6480     0.5070    -1.8640 hc         1 EF2       0.072700
     23 H072         1.4450    -1.2250    -2.1040 hc         1 EF2       0.072700
     24 H11         -5.4560     1.9040    -0.0370 ha         1 EF2       0.124000
     25 H12         -3.0990     2.7660     0.0740 ha         1 EF2       0.139500
     26 H20         -5.8950    -0.5470    -0.2130 ha         1 EF2       0.124000
     27 H19         -3.9850    -2.1760    -0.2800 ha         1 EF2       0.139500
     28 O16         -0.1800     2.0410     0.0660 o          1 EF2      -0.482000
     29 O18         -0.9930    -2.5120    -0.2280 o          1 EF2      -0.482000
@<TRIPOS>BOND
     1     1     2 2   
     2     2     3 1   
     3     2     8 1   
     4     3     4 1   
     5     3    18 1   
     6     4     5 2   
     7     4     6 1   
     8     6     7 1   
     9     6    20 1   
    10     6    21 1   
    11     7     8 1   
    12     7    22 1   
    13     7    23 1   
    14     8     9 1   
    15     8    19 1   
    16     9    16 1   
    17     9    17 1   
    18    10    11 ar  
    19    10    15 ar  
    20    10    24 1   
    21    11    12 ar  
    22    11    25 1   
    23    12    13 ar  
    24    12    17 1   
    25    13    14 ar  
    26    13    16 1   
    27    14    15 ar  
    28    14    27 1   
    29    15    26 1   
    30    16    29 2   
    31    17    28 2   
@<TRIPOS>SUBSTRUCTURE
     1 EF2         1 TEMP              0 ****  ****    0 ROOT
