@<TRIPOS>MOLECULE
EF3
   60    63     1     0     0
SMALL
bcc


@<TRIPOS>ATOM
      1 C1           6.5110    -0.5290    -0.0100 ca         1 EF3      -0.043900
      2 C2           5.7730    -1.7210    -0.0790 ca         1 EF3      -0.058200
      3 N3           6.7040    -2.7120    -0.1650 na         1 EF3      -0.149300
      4 C4           7.9170    -2.0980    -0.1460 cc         1 EF3       0.423700
      5 N5           7.8540    -0.8000    -0.0540 nd         1 EF3      -0.560100
      6 C6           0.3720     1.1340     0.0540 ca         1 EF3      -0.249300
      7 C7          -0.4850     0.0250     0.1540 ca         1 EF3       0.210100
      8 C8           0.0750    -1.2460     0.2340 ca         1 EF3      -0.242000
      9 C9           1.4510    -1.4070     0.2050 ca         1 EF3      -0.047000
     10 C10          2.3130    -0.3210     0.0950 cp         1 EF3      -0.193500
     11 C11          1.7420     0.9510     0.0280 ca         1 EF3      -0.001000
     12 C12          3.7860    -0.4690     0.0520 cp         1 EF3       0.492800
     13 C13          4.3910    -1.7210    -0.0560 ca         1 EF3      -0.235300
     14 C14          5.8070     0.6710     0.0800 ca         1 EF3       0.439000
     15 N15          4.4860     0.6700     0.1120 nb         1 EF3      -0.659000
     16 C16          6.4480    -4.1300    -0.2800 c3         1 EF3       0.036600
     17 C18         -2.7180    -0.8090     0.2350 c3         1 EF3       0.144400
     18 C19         -4.1150    -0.2300     0.1810 c3         1 EF3      -0.085400
     19 C20         -5.1570    -1.3390     0.2360 c3         1 EF3       0.173800
     20 N21         -6.5170    -0.8390     0.2760 n3         1 EF3      -0.717600
     21 C22         -0.2110     2.5110    -0.0220 c3         1 EF3       0.734200
     22 F23          0.7360     3.4530    -0.1150 f          1 EF3      -0.233633
     23 F24         -1.0090     2.6680    -1.0870 f          1 EF3      -0.233633
     24 F25         -0.9420     2.8130     1.0600 f          1 EF3      -0.233633
     25 C26          6.5370     1.9520     0.1370 ce         1 EF3       0.350200
     26 N27          5.9360     3.0630     0.1970 n2         1 EF3      -0.699100
     27 C28         -8.3570     0.2720    -0.8820 c6         1 EF3       0.163300
     28 N29         -9.2830    -0.7540    -0.4500 n3         1 EF3      -0.718600
     29 C30         -8.8510    -1.3130     0.8140 c6         1 EF3       0.163300
     30 C31         -7.4460    -1.8700     0.6990 c6         1 EF3       0.164800
     31 C32         -6.9490    -0.2820    -0.9920 c6         1 EF3       0.164800
     32 C33        -10.6390    -0.2610    -0.3830 c3         1 EF3       0.153100
     33 H4           8.8300    -2.6730    -0.2010 h5         1 EF3       0.064800
     34 H8          -0.5480    -2.1240     0.3230 ha         1 EF3       0.139000
     35 H9           1.8330    -2.4170     0.2810 ha         1 EF3       0.127000
     36 H11          2.4060     1.8000    -0.0470 ha         1 EF3       0.186000
     37 H13          3.8190    -2.6360    -0.1260 ha         1 EF3       0.144000
     38 H16          6.0210    -4.3680    -1.2530 h1         1 EF3       0.055367
     39 H16A         7.3830    -4.6690    -0.1650 h1         1 EF3       0.055367
     40 H16B         5.7620    -4.4520     0.5010 h1         1 EF3       0.055367
     41 H18         -2.5520    -1.4970    -0.6010 h1         1 EF3       0.036200
     42 H18A        -2.5700    -1.3720     1.1630 h1         1 EF3       0.036200
     43 H19         -4.2680     0.4490     1.0240 hc         1 EF3       0.069200
     44 H19A        -4.2160     0.3590    -0.7340 hc         1 EF3       0.069200
     45 H20         -5.0060    -2.0360    -0.6070 h1         1 EF3       0.028200
     46 H20A        -4.9930    -1.9250     1.1460 h1         1 EF3       0.028200
     47 H26          7.6240     1.8560     0.1210 h4         1 EF3      -0.011200
     48 HN27         6.6140     3.8200     0.2260 hn         1 EF3       0.375400
     49 H28         -8.6700     0.6480    -1.8600 h1         1 EF3       0.038700
     50 H28A        -8.3500     1.1340    -0.1910 h1         1 EF3       0.038700
     51 H30         -8.8790    -0.5610     1.6230 h1         1 EF3       0.038700
     52 H30A        -9.5330    -2.1180     1.1030 h1         1 EF3       0.038700
     53 H31         -7.4540    -2.7260     0.0010 h1         1 EF3       0.037950
     54 H31A        -7.1330    -2.2530     1.6740 h1         1 EF3       0.037950
     55 H32         -6.2830     0.5300    -1.2900 h1         1 EF3       0.037950
     56 H32A        -6.9150    -1.0390    -1.7960 h1         1 EF3       0.037950
     57 H33        -10.9500     0.1130    -1.3600 h1         1 EF3       0.030700
     58 H33A       -11.3160    -1.0690    -0.1020 h1         1 EF3       0.030700
     59 H33B       -10.7700     0.5540     0.3460 h1         1 EF3       0.030700
     60 O17         -1.7960     0.2730     0.1680 os         1 EF3      -0.311900
@<TRIPOS>BOND
     1     1     2 ar  
     2     1     5 1   
     3     1    14 ar  
     4     2     3 1   
     5     2    13 ar  
     6     3     4 1   
     7     3    16 1   
     8     4     5 2   
     9     4    33 1   
    10     6     7 ar  
    11     6    11 ar  
    12     6    21 1   
    13     7     8 ar  
    14     7    60 1   
    15     8     9 ar  
    16     8    34 1   
    17     9    10 ar  
    18     9    35 1   
    19    10    11 ar  
    20    10    12 1   
    21    11    36 1   
    22    12    13 ar  
    23    12    15 ar  
    24    13    37 1   
    25    14    15 ar  
    26    14    25 1   
    27    16    38 1   
    28    16    39 1   
    29    16    40 1   
    30    17    18 1   
    31    17    41 1   
    32    17    42 1   
    33    17    60 1   
    34    18    19 1   
    35    18    43 1   
    36    18    44 1   
    37    19    20 1   
    38    19    45 1   
    39    19    46 1   
    40    20    30 1   
    41    20    31 1   
    42    21    22 1   
    43    21    23 1   
    44    21    24 1   
    45    25    26 2   
    46    25    47 1   
    47    26    48 1   
    48    27    28 1   
    49    27    31 1   
    50    27    49 1   
    51    27    50 1   
    52    28    29 1   
    53    28    32 1   
    54    29    30 1   
    55    29    51 1   
    56    29    52 1   
    57    30    53 1   
    58    30    54 1   
    59    31    55 1   
    60    31    56 1   
    61    32    57 1   
    62    32    58 1   
    63    32    59 1   
@<TRIPOS>SUBSTRUCTURE
     1 EF3         1 TEMP              0 ****  ****    0 ROOT
