@<TRIPOS>MOLECULE
EF3
   60    63     1     0     0
SMALL
No Charge or Current Charge


@<TRIPOS>ATOM
      1 C1           6.6740    -0.5630     0.1650 ca         1 EF3       0.021400
      2 C2           5.9470    -1.6910    -0.0750 ca         1 EF3      -0.058200
      3 N3           6.8360    -2.7080    -0.2420 na         1 EF3      -0.178600
      4 C4           8.1160    -2.1700    -0.0950 cc         1 EF3       0.423700
      5 N5           8.0490    -0.8420     0.1570 nd         1 EF3      -0.560100
      6 C6           0.4000     1.1570    -0.2280 ca         1 EF3      -0.249300
      7 C7          -0.4250     0.0390     0.0150 ca         1 EF3       0.210100
      8 C8           0.1590    -1.2150     0.2860 ca         1 EF3      -0.224000
      9 C9           1.5540    -1.3610     0.3130 ca         1 EF3      -0.029000
     10 C10          2.4110    -0.2600     0.0680 cp         1 EF3      -0.193500
     11 C11          1.8050     0.9970    -0.1970 ca         1 EF3       0.017000
     12 C12          3.9070    -0.4130     0.0950 cp         1 EF3       0.427500
     13 C13          4.5490    -1.6640    -0.1220 ca         1 EF3      -0.152000
     14 C14          5.9980     0.6650     0.3710 ca         1 EF3       0.373700
     15 N15          4.6280     0.7180     0.3250 nb         1 EF3      -0.659000
     16 C16          6.4430    -4.0970    -0.5210 c3         1 EF3       0.065900
     17 C18         -2.7140    -0.8750     0.2150 c3         1 EF3       0.167600
     18 C19         -4.1380    -0.3060     0.0930 c3         1 EF3      -0.085400
     19 C20         -5.2220    -1.3820     0.3170 c3         1 EF3       0.173800
     20 N21         -6.6100    -0.8630     0.3640 n3         1 EF3      -0.717600
     21 C22         -0.2270     2.5280    -0.5220 c3         1 EF3       0.370300
     22 F23          0.6930     3.4970    -0.7340 f          1 EF3      -0.112333
     23 F24         -1.0070     2.4950    -1.6270 f          1 EF3      -0.112333
     24 F25         -1.0020     2.9550     0.5010 f          1 EF3      -0.112333
     25 C26          6.7890     1.9300     0.6220 ce         1 EF3       0.350200
     26 N27          6.3010     3.1330     0.4980 n2         1 EF3      -0.699100
     27 C28         -8.5370     0.3010    -0.8270 c6         1 EF3       0.163300
     28 N29         -9.5070    -0.7490    -0.3910 n3         1 EF3      -0.718600
     29 C30         -9.0490    -1.3650     0.8900 c6         1 EF3       0.163300
     30 C31         -7.5880    -1.9100     0.7950 c6         1 EF3       0.164800
     31 C32         -7.0730    -0.2390    -0.9190 c6         1 EF3       0.164800
     32 C33        -10.8980    -0.2510    -0.3220 c3         1 EF3       0.153100
     33 H4           9.0150    -2.7680    -0.1800 h5         1 EF3       0.064800
     34 H8          -0.4510    -2.0910     0.4830 ha         1 EF3       0.121000
     35 H9           1.9640    -2.3410     0.5430 ha         1 EF3       0.109000
     36 H11          2.4460     1.8560    -0.3890 ha         1 EF3       0.168000
     37 H13          3.9820    -2.5640    -0.3320 ha         1 EF3       0.126000
     38 H16          5.8810    -4.1390    -1.4630 h1         1 EF3       0.055367
     39 H16A         7.3370    -4.7270    -0.6070 h1         1 EF3       0.055367
     40 H16B         5.8140    -4.4740     0.2950 h1         1 EF3       0.055367
     41 H18         -2.5730    -1.6710    -0.5280 h1         1 EF3       0.036200
     42 H18A        -2.5720    -1.2970     1.2190 h1         1 EF3       0.036200
     43 H19         -4.2690     0.4940     0.8300 hc         1 EF3       0.069200
     44 H19A        -4.2530     0.1380    -0.9020 hc         1 EF3       0.069200
     45 H20         -5.1330    -2.1420    -0.4720 h1         1 EF3       0.028200
     46 H20A        -4.9980    -1.8830     1.2690 h1         1 EF3       0.028200
     47 H26          7.8510     1.8020     0.8380 h4         1 EF3      -0.011200
     48 HN27         7.0430     3.8250     0.6820 hn         1 EF3       0.375400
     49 H28         -8.8260     0.7010    -1.8100 h1         1 EF3       0.038700
     50 H28A        -8.5530     1.1450    -0.1200 h1         1 EF3       0.038700
     51 H30         -9.0930    -0.6260     1.7030 h1         1 EF3       0.038700
     52 H30A        -9.7150    -2.1940     1.1730 h1         1 EF3       0.038700
     53 H31         -7.5750    -2.7520     0.0870 h1         1 EF3       0.037950
     54 H31A        -7.3020    -2.3140     1.7780 h1         1 EF3       0.037950
     55 H32         -6.4230     0.6000    -1.2010 h1         1 EF3       0.037950
     56 H32A        -7.0230    -0.9740    -1.7360 h1         1 EF3       0.037950
     57 H33        -11.2150     0.1490    -1.2950 h1         1 EF3       0.030700
     58 H33A       -11.5860    -1.0610    -0.0490 h1         1 EF3       0.030700
     59 H33B       -10.9920     0.5480     0.4250 h1         1 EF3       0.030700
     60 O17         -1.7960     0.2050    -0.0170 os         1 EF3      -0.335100
@<TRIPOS>BOND
     1     1     2 ar  
     2     1     5 1   
     3     1    14 ar  
     4     2     3 1   
     5     2    13 ar  
     6     3     4 1   
     7     3    16 1   
     8     4     5 2   
     9     4    33 1   
    10     6     7 ar  
    11     6    11 ar  
    12     6    21 1   
    13     7     8 ar  
    14     7    60 1   
    15     8     9 ar  
    16     8    34 1   
    17     9    10 ar  
    18     9    35 1   
    19    10    11 ar  
    20    10    12 1   
    21    11    36 1   
    22    12    13 ar  
    23    12    15 ar  
    24    13    37 1   
    25    14    15 ar  
    26    14    25 1   
    27    16    38 1   
    28    16    39 1   
    29    16    40 1   
    30    17    18 1   
    31    17    41 1   
    32    17    42 1   
    33    17    60 1   
    34    18    19 1   
    35    18    43 1   
    36    18    44 1   
    37    19    20 1   
    38    19    45 1   
    39    19    46 1   
    40    20    30 1   
    41    20    31 1   
    42    21    22 1   
    43    21    23 1   
    44    21    24 1   
    45    25    26 2   
    46    25    47 1   
    47    26    48 1   
    48    27    28 1   
    49    27    31 1   
    50    27    49 1   
    51    27    50 1   
    52    28    29 1   
    53    28    32 1   
    54    29    30 1   
    55    29    51 1   
    56    29    52 1   
    57    30    53 1   
    58    30    54 1   
    59    31    55 1   
    60    31    56 1   
    61    32    57 1   
    62    32    58 1   
    63    32    59 1   
@<TRIPOS>SUBSTRUCTURE
     1 EF3         1 TEMP              0 ****  ****    0 ROOT
