@<TRIPOS>MOLECULE
EF4
  129   131     1     0     0
SMALL
No Charge or Current Charge


@<TRIPOS>ATOM
      1 C1          19.5240    43.8250    34.6750 c3         1 EF4      -0.086100
      2 C2          20.5840    44.4410    33.7410 c3         1 EF4       0.171300
      3 C1A         25.4940    42.1250    32.4340 c3         1 EF4      -0.080100
      4 C10         25.0050    43.1660    31.3710 c6         1 EF4      -0.066700
      5 C11         23.8660    42.5600    30.4970 c6         1 EF4       0.184300
      6 C12         23.3430    43.5840    29.4440 c6         1 EF4      -0.109700
      7 C1B         24.3690    43.8360    28.2930 c3         1 EF4      -0.076100
      8 O37         24.3380    41.3550    29.8530 os         1 EF4      -0.457100
      9 C36         23.4740    40.4590    29.2850 c          1 EF4       0.595300
     10 O36         22.2560    40.5320    29.3580 o          1 EF4      -0.491000
     11 C35         24.1880    39.3240    28.6380 ce         1 EF4      -0.275200
     12 C34         25.5350    39.2010    28.5290 c2         1 EF4      -0.134200
     13 C33         26.2620    38.0150    27.9190 c3         1 EF4      -0.045500
     14 C3B         26.9630    37.2230    29.0490 c3         1 EF4      -0.079100
     15 C32         27.2480    38.4290    26.7800 c3         1 EF4       0.194300
     16 O32         27.8420    37.2530    26.2240 oh         1 EF4      -0.674000
     17 C31         26.6200    39.2710    25.6260 c3         1 EF4      -0.203700
     18 C3A         25.4500    38.5690    24.8830 c3         1 EF4      -0.079100
     19 C30         27.6900    39.7240    24.6030 c          1 EF4       0.582100
     20 O30         28.5290    38.9310    24.1850 o          1 EF4      -0.527100
     21 C29         27.6330    41.1890    24.1120 c3         1 EF4      -0.150700
     22 C2D         27.9330    41.2940    22.5890 c3         1 EF4      -0.077100
     23 C28         28.5290    42.0920    25.0100 c3         1 EF4       0.189300
     24 O28         29.8900    41.6860    24.8660 oh         1 EF4      -0.661000
     25 C27         28.4280    43.6220    24.7280 c3         1 EF4      -0.192700
     26 C2C         29.2950    44.4670    25.7030 c3         1 EF4      -0.095100
     27 C26         26.9620    44.1120    24.7840 c          1 EF4       0.575100
     28 O26         26.2590    43.8580    25.7530 o          1 EF4      -0.535100
     29 C25         26.4010    44.9100    23.5840 c3         1 EF4      -0.186700
     30 C2B         25.2760    44.0960    22.8880 c3         1 EF4      -0.084100
     31 C24         25.9310    46.3190    24.0490 c3         1 EF4       0.184300
     32 O24         27.0400    46.9830    24.6620 oh         1 EF4      -0.671000
     33 C23         25.3260    47.2410    22.9320 c3         1 EF4      -0.050700
     34 C2A         26.3140    47.5510    21.7760 c3         1 EF4      -0.086100
     35 C22         24.7150    48.5520    23.5030 c3         1 EF4      -0.038200
     36 C21         23.6160    48.2950    24.5160 c2         1 EF4      -0.216200
     37 C20         23.5980    48.7260    25.7940 ce         1 EF4      -0.178000
     38 C19         22.5160    48.4010    26.7250 ce         1 EF4      -0.195000
     39 C18         22.5010    48.7860    28.0190 c2         1 EF4      -0.191200
     40 C17         21.4340    48.4110    29.0340 c3         1 EF4      -0.030500
     41 C1C         20.9330    49.6500    29.8190 c3         1 EF4      -0.069400
     42 C1D         20.3030    50.7420    28.9280 c3         1 EF4      -0.088100
     43 C16         21.9430    47.3010    29.9910 c3         1 EF4      -0.068400
     44 C15         22.4260    46.0190    29.2630 c3         1 EF4      -0.074400
     45 C13         22.9220    44.8760    30.1960 c6         1 EF4       0.177300
     46 O14         24.0380    45.3890    30.9480 os         1 EF4      -0.488000
     47 C8          24.5460    44.5320    31.9950 c6         1 EF4       0.397000
     48 O9          23.5030    44.2980    32.9730 os         1 EF4      -0.490000
     49 C7          25.7390    45.2740    32.6790 c6         1 EF4      -0.083400
     50 C6          25.2660    46.5390    33.4430 c6         1 EF4      -0.069400
     51 C5          24.1240    46.1900    34.4340 c6         1 EF4      -0.085700
     52 C51         24.6510    45.3730    35.6550 c3         1 EF4      -0.083100
     53 C4          22.9890    45.4740    33.6400 c6         1 EF4       0.175300
     54 C3          21.7910    45.0140    34.5210 c3         1 EF4      -0.107400
     55 O2          19.9630    45.4810    32.9800 oh         1 EF4      -0.676000
     56 H1          19.9550    43.0020    35.2570 hc         1 EF4       0.044033
     57 H2          19.1340    44.5750    35.3740 hc         1 EF4       0.044033
     58 H3          18.6840    43.4250    34.0940 hc         1 EF4       0.044033
     59 H4          20.9430    43.6470    33.0710 h1         1 EF4       0.043700
     60 H5          26.3780    42.4710    32.9790 hc         1 EF4       0.043033
     61 H6          24.7110    41.9040    33.1690 hc         1 EF4       0.043033
     62 H7          25.7790    41.1760    31.9650 hc         1 EF4       0.043033
     63 H8          25.8690    43.3610    30.7230 hc         1 EF4       0.067700
     64 H9          23.0370    42.2920    31.1700 h1         1 EF4       0.078700
     65 H10         22.4470    43.1670    28.9670 hc         1 EF4       0.071700
     66 H11         24.7110    42.8960    27.8460 hc         1 EF4       0.040033
     67 H12         23.9240    44.4190    27.4780 hc         1 EF4       0.040033
     68 H13         25.2550    44.3780    28.6430 hc         1 EF4       0.040033
     69 H14         23.5300    38.5510    28.2460 ha         1 EF4       0.203000
     70 H15         26.2000    39.9740    28.9230 ha         1 EF4       0.184000
     71 H16         25.5200    37.3360    27.4800 hc         1 EF4       0.070700
     72 H17         26.2430    36.9540    29.8320 hc         1 EF4       0.043700
     73 H18         27.4040    36.2930    28.6700 hc         1 EF4       0.043700
     74 H19         27.7600    37.8200    29.5080 hc         1 EF4       0.043700
     75 H20         28.0340    39.0460    27.2380 h1         1 EF4       0.033700
     76 H21         28.3020    37.5530    25.4020 ho         1 EF4       0.475000
     77 H22         26.1830    40.1790    26.0570 hc         1 EF4       0.070700
     78 H23         24.6180    38.3550    25.5640 hc         1 EF4       0.046700
     79 H24         25.0620    39.2120    24.0830 hc         1 EF4       0.046700
     80 H25         25.7750    37.6250    24.4280 hc         1 EF4       0.046700
     81 H26         26.6070    41.5250    24.2920 hc         1 EF4       0.076700
     82 H27         27.8190    42.3210    22.2240 hc         1 EF4       0.047033
     83 H28         28.9560    40.9680    22.3620 hc         1 EF4       0.047033
     84 H29         27.2430    40.6600    22.0190 hc         1 EF4       0.047033
     85 H30         28.2130    41.9300    26.0520 h1         1 EF4       0.047700
     86 H31         30.4240    42.2500    25.4650 ho         1 EF4       0.445000
     87 H32         28.8200    43.8230    23.7250 hc         1 EF4       0.081700
     88 H33         30.3610    44.2240    25.6120 hc         1 EF4       0.048700
     89 H34         29.1890    45.5360    25.4860 hc         1 EF4       0.048700
     90 H35         28.9900    44.3010    26.7440 hc         1 EF4       0.048700
     91 H36         27.2110    45.0380    22.8580 hc         1 EF4       0.074700
     92 H37         25.6030    43.0730    22.6750 hc         1 EF4       0.044700
     93 H38         24.3840    44.0380    23.5250 hc         1 EF4       0.044700
     94 H39         24.9890    44.5480    21.9310 hc         1 EF4       0.044700
     95 H40         25.1470    46.1570    24.8020 h1         1 EF4       0.053700
     96 H41         26.6910    47.8160    25.0440 ho         1 EF4       0.445000
     97 H42         24.4840    46.7010    22.4830 hc         1 EF4       0.047700
     98 H43         26.6430    46.6320    21.2770 hc         1 EF4       0.038033
     99 H44         25.8340    48.1800    21.0170 hc         1 EF4       0.038033
    100 H45         27.2010    48.0810    22.1440 hc         1 EF4       0.038033
    101 H46         25.5070    49.1730    23.9390 hc         1 EF4       0.053200
    102 H47         24.2990    49.1390    22.6740 hc         1 EF4       0.053200
    103 H48         22.7920    47.6910    24.1310 ha         1 EF4       0.165000
    104 H49         24.4210    49.3300    26.1840 ha         1 EF4       0.170000
    105 H50         21.7020    47.7860    26.3340 ha         1 EF4       0.167000
    106 H51         23.3170    49.3860    28.4250 ha         1 EF4       0.168000
    107 H52         20.5670    48.0000    28.4990 hc         1 EF4       0.049700
    108 H53         21.7660    50.0860    30.3850 hc         1 EF4       0.040200
    109 H54         20.1850    49.3300    30.5560 hc         1 EF4       0.040200
    110 H55         19.9320    51.5690    29.5450 hc         1 EF4       0.034033
    111 H56         21.0380    51.1480    28.2230 hc         1 EF4       0.034033
    112 H57         19.4600    50.3370    28.3560 hc         1 EF4       0.034033
    113 H58         22.7650    47.7020    30.5970 hc         1 EF4       0.043700
    114 H59         21.1400    47.0320    30.6860 hc         1 EF4       0.043700
    115 H60         21.6090    45.6450    28.6350 hc         1 EF4       0.055700
    116 H61         23.2350    46.3020    28.5820 hc         1 EF4       0.055700
    117 H62         22.1030    44.6330    30.8880 h1         1 EF4       0.043700
    118 H63         26.2620    44.6170    33.3800 hc         1 EF4       0.057700
    119 H64         26.4800    45.5580    31.9200 hc         1 EF4       0.057700
    120 H65         26.1110    46.9990    33.9730 hc         1 EF4       0.049700
    121 H66         24.9100    47.2900    32.7240 hc         1 EF4       0.049700
    122 H67         23.7270    47.1290    34.8430 hc         1 EF4       0.052700
    123 H68         25.5220    45.8600    36.1090 hc         1 EF4       0.036033
    124 H69         23.8890    45.2900    36.4390 hc         1 EF4       0.036033
    125 H70         24.9470    44.3560    35.3720 hc         1 EF4       0.036033
    126 H71         22.6040    46.1740    32.8850 h1         1 EF4       0.038700
    127 H72         21.4450    45.8530    35.1380 hc         1 EF4       0.060700
    128 H73         22.1340    44.2430    35.2200 hc         1 EF4       0.060700
    129 H74         20.6160    45.7690    32.3090 ho         1 EF4       0.437000
@<TRIPOS>BOND
     1     1     2 1   
     2     1    56 1   
     3     1    57 1   
     4     1    58 1   
     5     2    54 1   
     6     2    55 1   
     7     2    59 1   
     8     3     4 1   
     9     3    60 1   
    10     3    61 1   
    11     3    62 1   
    12     4     5 1   
    13     4    47 1   
    14     4    63 1   
    15     5     6 1   
    16     5     8 1   
    17     5    64 1   
    18     6     7 1   
    19     6    45 1   
    20     6    65 1   
    21     7    66 1   
    22     7    67 1   
    23     7    68 1   
    24     8     9 1   
    25     9    10 2   
    26     9    11 1   
    27    11    12 2   
    28    11    69 1   
    29    12    13 1   
    30    12    70 1   
    31    13    14 1   
    32    13    15 1   
    33    13    71 1   
    34    14    72 1   
    35    14    73 1   
    36    14    74 1   
    37    15    16 1   
    38    15    17 1   
    39    15    75 1   
    40    16    76 1   
    41    17    18 1   
    42    17    19 1   
    43    17    77 1   
    44    18    78 1   
    45    18    79 1   
    46    18    80 1   
    47    19    20 2   
    48    19    21 1   
    49    21    22 1   
    50    21    23 1   
    51    21    81 1   
    52    22    82 1   
    53    22    83 1   
    54    22    84 1   
    55    23    24 1   
    56    23    25 1   
    57    23    85 1   
    58    24    86 1   
    59    25    26 1   
    60    25    27 1   
    61    25    87 1   
    62    26    88 1   
    63    26    89 1   
    64    26    90 1   
    65    27    28 2   
    66    27    29 1   
    67    29    30 1   
    68    29    31 1   
    69    29    91 1   
    70    30    92 1   
    71    30    93 1   
    72    30    94 1   
    73    31    32 1   
    74    31    33 1   
    75    31    95 1   
    76    32    96 1   
    77    33    34 1   
    78    33    35 1   
    79    33    97 1   
    80    34    98 1   
    81    34    99 1   
    82    34   100 1   
    83    35    36 1   
    84    35   101 1   
    85    35   102 1   
    86    36    37 2   
    87    36   103 1   
    88    37    38 1   
    89    37   104 1   
    90    38    39 2   
    91    38   105 1   
    92    39    40 1   
    93    39   106 1   
    94    40    41 1   
    95    40    43 1   
    96    40   107 1   
    97    41    42 1   
    98    41   108 1   
    99    41   109 1   
   100    42   110 1   
   101    42   111 1   
   102    42   112 1   
   103    43    44 1   
   104    43   113 1   
   105    43   114 1   
   106    44    45 1   
   107    44   115 1   
   108    44   116 1   
   109    45    46 1   
   110    45   117 1   
   111    46    47 1   
   112    47    48 1   
   113    47    49 1   
   114    48    53 1   
   115    49    50 1   
   116    49   118 1   
   117    49   119 1   
   118    50    51 1   
   119    50   120 1   
   120    50   121 1   
   121    51    52 1   
   122    51    53 1   
   123    51   122 1   
   124    52   123 1   
   125    52   124 1   
   126    52   125 1   
   127    53    54 1   
   128    53   126 1   
   129    54   127 1   
   130    54   128 1   
   131    55   129 1   
@<TRIPOS>SUBSTRUCTURE
     1 EF4         1 TEMP              0 ****  ****    0 ROOT
