@<TRIPOS>MOLECULE
EF4
  129   131     1     0     0
SMALL
abcg2


@<TRIPOS>ATOM
      1 C1          20.1150    43.8300    34.9500 c3         1 EF4      -0.086100
      2 C2          20.9690    44.4730    33.8730 c3         1 EF4       0.171300
      3 C1A         25.7000    42.4700    32.2190 c3         1 EF4      -0.080100
      4 C10         25.0780    43.3380    31.1250 c6         1 EF4      -0.066700
      5 C11         23.9240    42.6060    30.4420 c6         1 EF4       0.184300
      6 C12         23.2200    43.4430    29.3710 c6         1 EF4      -0.109700
      7 C1B         24.0810    43.6740    28.1290 c3         1 EF4      -0.076100
      8 O37         24.4920    41.4080    29.8500 os         1 EF4      -0.457100
      9 C36         23.6890    40.3600    29.6340 c          1 EF4       0.595300
     10 O36         22.5160    40.3270    29.9640 o          1 EF4      -0.491000
     11 C35         24.3580    39.2360    28.9600 ce         1 EF4      -0.275200
     12 C34         25.6330    39.2260    28.5710 c2         1 EF4      -0.134200
     13 C33         26.3010    38.0420    27.9520 c3         1 EF4      -0.045500
     14 C3B         27.2600    37.4130    28.9800 c3         1 EF4      -0.079100
     15 C32         27.0680    38.4060    26.6720 c3         1 EF4       0.194300
     16 O32         27.5530    37.1830    26.1200 oh         1 EF4      -0.674000
     17 C31         26.2310    39.2070    25.6470 c3         1 EF4      -0.203700
     18 C3A         24.9850    38.4610    25.1440 c3         1 EF4      -0.079100
     19 C30         27.0960    39.5650    24.4470 c          1 EF4       0.582100
     20 O30         27.6890    38.6850    23.8420 o          1 EF4      -0.527100
     21 C29         27.1840    41.0160    24.0090 c3         1 EF4      -0.150700
     22 C2D         27.8760    41.1460    22.6550 c3         1 EF4      -0.077100
     23 C28         27.8600    41.8180    25.1420 c3         1 EF4       0.189300
     24 O28         29.1270    41.1910    25.3790 oh         1 EF4      -0.661000
     25 C27         28.0350    43.3090    24.8220 c3         1 EF4      -0.192700
     26 C2C         28.7940    44.0380    25.9480 c3         1 EF4      -0.095100
     27 C26         26.7120    44.0360    24.6460 c          1 EF4       0.575100
     28 O26         25.7150    43.7030    25.2590 o          1 EF4      -0.535100
     29 C25         26.6840    45.2150    23.6820 c3         1 EF4      -0.186700
     30 C2B         25.9150    44.7610    22.4300 c3         1 EF4      -0.084100
     31 C24         26.0600    46.4510    24.3480 c3         1 EF4       0.184300
     32 O24         26.8650    46.8490    25.4710 oh         1 EF4      -0.671000
     33 C23         25.9080    47.6540    23.4100 c3         1 EF4      -0.050700
     34 C2A         27.2290    48.0930    22.7750 c3         1 EF4      -0.086100
     35 C22         25.2450    48.8490    24.1260 c3         1 EF4      -0.038200
     36 C21         23.9520    48.5170    24.7980 c2         1 EF4      -0.216200
     37 C20         23.6870    48.7480    26.0900 ce         1 EF4      -0.178000
     38 C19         22.4610    48.3690    26.7640 ce         1 EF4      -0.195000
     39 C18         22.2350    48.5470    28.0700 c2         1 EF4      -0.191200
     40 C17         21.0460    48.0430    28.8290 c3         1 EF4      -0.030500
     41 C1C         20.3330    49.1720    29.5900 c3         1 EF4      -0.069400
     42 C1D         19.7360    50.2440    28.6820 c3         1 EF4      -0.088100
     43 C16         21.4890    46.9350    29.8050 c3         1 EF4      -0.068400
     44 C15         22.0900    45.7180    29.1090 c3         1 EF4      -0.074400
     45 C13         22.7680    44.7400    30.0510 c6         1 EF4       0.177300
     46 O14         23.9020    45.4150    30.6130 os         1 EF4      -0.488000
     47 C8          24.5950    44.7120    31.6370 c6         1 EF4       0.397000
     48 O9          23.7360    44.4540    32.7370 os         1 EF4      -0.490000
     49 C7          25.7510    45.6260    32.0390 c6         1 EF4      -0.083400
     50 C6          25.2570    46.8670    32.7810 c6         1 EF4      -0.069400
     51 C5          24.3450    46.4870    33.9570 c6         1 EF4      -0.085700
     52 C51         25.1160    45.8280    35.1020 c3         1 EF4      -0.083100
     53 C4          23.2110    45.6160    33.4070 c6         1 EF4       0.175300
     54 C3          22.2350    45.1030    34.4520 c3         1 EF4      -0.107400
     55 O2          20.1400    45.4570    33.2260 oh         1 EF4      -0.676000
     56 H1          20.6710    43.0380    35.4530 hc         1 EF4       0.044033
     57 H2          19.8210    44.5730    35.6960 hc         1 EF4       0.044033
     58 H3          19.2120    43.3980    34.5160 hc         1 EF4       0.044033
     59 H4          21.2550    43.7150    33.1360 h1         1 EF4       0.043700
     60 H5          26.5270    42.9770    32.7150 hc         1 EF4       0.043033
     61 H6          24.9560    42.2130    32.9740 hc         1 EF4       0.043033
     62 H7          26.0860    41.5460    31.7900 hc         1 EF4       0.043033
     63 H8          25.8350    43.5540    30.3670 hc         1 EF4       0.067700
     64 H9          23.1950    42.2950    31.1900 h1         1 EF4       0.078700
     65 H10         22.3170    42.9030    29.0760 hc         1 EF4       0.071700
     66 H11         24.4840    42.7340    27.7570 hc         1 EF4       0.040033
     67 H12         23.4920    44.1170    27.3280 hc         1 EF4       0.040033
     68 H13         24.9190    44.3410    28.3340 hc         1 EF4       0.040033
     69 H14         23.7200    38.3760    28.7960 ha         1 EF4       0.203000
     70 H15         26.2520    40.1010    28.7470 ha         1 EF4       0.184000
     71 H16         25.5420    37.3020    27.6880 hc         1 EF4       0.070700
     72 H17         26.7100    37.0900    29.8640 hc         1 EF4       0.043700
     73 H18         27.7660    36.5510    28.5490 hc         1 EF4       0.043700
     74 H19         28.0160    38.1380    29.2930 hc         1 EF4       0.043700
     75 H20         27.9190    39.0400    26.9570 h1         1 EF4       0.033700
     76 H21         27.8050    37.3770    25.2010 ho         1 EF4       0.475000
     77 H22         25.9090    40.1270    26.1340 hc         1 EF4       0.070700
     78 H23         24.2870    38.2920    25.9630 hc         1 EF4       0.046700
     79 H24         24.4710    39.0480    24.3810 hc         1 EF4       0.046700
     80 H25         25.2580    37.4990    24.7120 hc         1 EF4       0.046700
     81 H26         26.1540    41.3800    23.9430 hc         1 EF4       0.076700
     82 H27         27.8400    42.1700    22.2920 hc         1 EF4       0.047033
     83 H28         28.9200    40.8400    22.7190 hc         1 EF4       0.047033
     84 H29         27.3840    40.5110    21.9190 hc         1 EF4       0.047033
     85 H30         27.2460    41.7390    26.0410 h1         1 EF4       0.047700
     86 H31         29.4370    41.4350    26.2590 ho         1 EF4       0.445000
     87 H32         28.6130    43.4190    23.9030 hc         1 EF4       0.081700
     88 H33         29.8060    43.6460    26.0340 hc         1 EF4       0.048700
     89 H34         28.8610    45.1050    25.7410 hc         1 EF4       0.048700
     90 H35         28.2780    43.9060    26.9010 hc         1 EF4       0.048700
     91 H36         27.7120    45.4520    23.4040 hc         1 EF4       0.074700
     92 H37         26.3040    43.8150    22.0510 hc         1 EF4       0.044700
     93 H38         24.8570    44.6240    22.6630 hc         1 EF4       0.044700
     94 H39         26.0040    45.4990    21.6330 hc         1 EF4       0.044700
     95 H40         25.0660    46.1750    24.7090 h1         1 EF4       0.053700
     96 H41         26.5560    46.3780    26.2530 ho         1 EF4       0.445000
     97 H42         25.2270    47.3400    22.6140 hc         1 EF4       0.047700
     98 H43         27.6560    47.3160    22.1390 hc         1 EF4       0.038033
     99 H44         27.0730    48.9790    22.1570 hc         1 EF4       0.038033
    100 H45         27.9630    48.3450    23.5430 hc         1 EF4       0.038033
    101 H46         25.9390    49.2670    24.8580 hc         1 EF4       0.053200
    102 H47         25.0780    49.6210    23.3670 hc         1 EF4       0.053200
    103 H48         23.1920    48.0350    24.1860 ha         1 EF4       0.165000
    104 H49         24.4510    49.2210    26.7040 ha         1 EF4       0.170000
    105 H50         21.7060    47.8680    26.1600 ha         1 EF4       0.167000
    106 H51         23.0000    49.0390    28.6700 ha         1 EF4       0.168000
    107 H52         20.3380    47.6080    28.1140 hc         1 EF4       0.049700
    108 H53         21.0460    49.6290    30.2850 hc         1 EF4       0.040200
    109 H54         19.5420    48.7290    30.2020 hc         1 EF4       0.040200
    110 H55         19.2200    51.0100    29.2650 hc         1 EF4       0.034033
    111 H56         20.5090    50.7360    28.0880 hc         1 EF4       0.034033
    112 H57         19.0140    49.8070    27.9880 hc         1 EF4       0.034033
    113 H58         22.2170    47.3560    30.5030 hc         1 EF4       0.043700
    114 H59         20.6210    46.6270    30.3980 hc         1 EF4       0.043700
    115 H60         21.3100    45.1840    28.5590 hc         1 EF4       0.055700
    116 H61         22.8220    46.0480    28.3720 hc         1 EF4       0.055700
    117 H62         22.0800    44.4760    30.8610 h1         1 EF4       0.043700
    118 H63         26.4340    45.0630    32.6750 hc         1 EF4       0.057700
    119 H64         26.2990    45.9020    31.1380 hc         1 EF4       0.057700
    120 H65         26.1100    47.4460    33.1410 hc         1 EF4       0.049700
    121 H66         24.7010    47.5060    32.0910 hc         1 EF4       0.049700
    122 H67         23.8790    47.4020    34.3370 hc         1 EF4       0.052700
    123 H68         25.9670    46.4490    35.3890 hc         1 EF4       0.036033
    124 H69         24.4870    45.6980    35.9830 hc         1 EF4       0.036033
    125 H70         25.4980    44.8460    34.8180 hc         1 EF4       0.036033
    126 H71         22.6740    46.2220    32.6690 h1         1 EF4       0.038700
    127 H72         21.9420    45.9320    35.1040 hc         1 EF4       0.060700
    128 H73         22.7420    44.3620    35.0730 hc         1 EF4       0.060700
    129 H74         20.6160    45.8150    32.4670 ho         1 EF4       0.437000
@<TRIPOS>BOND
     1     1     2 1   
     2     1    56 1   
     3     1    57 1   
     4     1    58 1   
     5     2    54 1   
     6     2    55 1   
     7     2    59 1   
     8     3     4 1   
     9     3    60 1   
    10     3    61 1   
    11     3    62 1   
    12     4     5 1   
    13     4    47 1   
    14     4    63 1   
    15     5     6 1   
    16     5     8 1   
    17     5    64 1   
    18     6     7 1   
    19     6    45 1   
    20     6    65 1   
    21     7    66 1   
    22     7    67 1   
    23     7    68 1   
    24     8     9 1   
    25     9    10 2   
    26     9    11 1   
    27    11    12 2   
    28    11    69 1   
    29    12    13 1   
    30    12    70 1   
    31    13    14 1   
    32    13    15 1   
    33    13    71 1   
    34    14    72 1   
    35    14    73 1   
    36    14    74 1   
    37    15    16 1   
    38    15    17 1   
    39    15    75 1   
    40    16    76 1   
    41    17    18 1   
    42    17    19 1   
    43    17    77 1   
    44    18    78 1   
    45    18    79 1   
    46    18    80 1   
    47    19    20 2   
    48    19    21 1   
    49    21    22 1   
    50    21    23 1   
    51    21    81 1   
    52    22    82 1   
    53    22    83 1   
    54    22    84 1   
    55    23    24 1   
    56    23    25 1   
    57    23    85 1   
    58    24    86 1   
    59    25    26 1   
    60    25    27 1   
    61    25    87 1   
    62    26    88 1   
    63    26    89 1   
    64    26    90 1   
    65    27    28 2   
    66    27    29 1   
    67    29    30 1   
    68    29    31 1   
    69    29    91 1   
    70    30    92 1   
    71    30    93 1   
    72    30    94 1   
    73    31    32 1   
    74    31    33 1   
    75    31    95 1   
    76    32    96 1   
    77    33    34 1   
    78    33    35 1   
    79    33    97 1   
    80    34    98 1   
    81    34    99 1   
    82    34   100 1   
    83    35    36 1   
    84    35   101 1   
    85    35   102 1   
    86    36    37 2   
    87    36   103 1   
    88    37    38 1   
    89    37   104 1   
    90    38    39 2   
    91    38   105 1   
    92    39    40 1   
    93    39   106 1   
    94    40    41 1   
    95    40    43 1   
    96    40   107 1   
    97    41    42 1   
    98    41   108 1   
    99    41   109 1   
   100    42   110 1   
   101    42   111 1   
   102    42   112 1   
   103    43    44 1   
   104    43   113 1   
   105    43   114 1   
   106    44    45 1   
   107    44   115 1   
   108    44   116 1   
   109    45    46 1   
   110    45   117 1   
   111    46    47 1   
   112    47    48 1   
   113    47    49 1   
   114    48    53 1   
   115    49    50 1   
   116    49   118 1   
   117    49   119 1   
   118    50    51 1   
   119    50   120 1   
   120    50   121 1   
   121    51    52 1   
   122    51    53 1   
   123    51   122 1   
   124    52   123 1   
   125    52   124 1   
   126    52   125 1   
   127    53    54 1   
   128    53   126 1   
   129    54   127 1   
   130    54   128 1   
   131    55   129 1   
@<TRIPOS>SUBSTRUCTURE
     1 EF4         1 TEMP              0 ****  ****    0 ROOT
