@<TRIPOS>MOLECULE
EF5
   56    59     1     0     0
SMALL
No Charge or Current Charge


@<TRIPOS>ATOM
      1 C1           2.9220     0.5110    -0.4010 cc         1 EF5       0.430500
      2 C3           0.9960     1.1340    -1.2580 cd         1 EF5       0.522300
      3 C11         -3.6030     2.0940     0.1040 ca         1 EF5      -0.110500
      4 C12         -4.6850     1.4450     0.7240 ca         1 EF5      -0.014000
      5 C13         -5.6690     0.8080    -0.0590 ca         1 EF5      -0.259500
      6 C14         -5.5580     0.8210    -1.4640 ca         1 EF5      -0.014000
      7 C15         -4.4740     1.4720    -2.0780 ca         1 EF5      -0.110500
      8 C19          3.7470    -1.6050    -1.6360 c          1 EF5       0.628300
      9 C20          4.7040    -2.0820    -0.5780 ca         1 EF5      -0.156600
     10 C22          4.0580     0.6400     0.5110 ca         1 EF5      -0.134500
     11 C23          5.3670     0.8150     0.0100 ca         1 EF5      -0.078000
     12 C24          6.4520     0.9650     0.8910 ca         1 EF5      -0.116000
     13 C25          6.2370     0.9680     2.2790 ca         1 EF5      -0.098000
     14 C26          4.9340     0.8340     2.7850 ca         1 EF5      -0.116000
     15 C27          3.8480     0.6820     1.9060 ca         1 EF5      -0.078000
     16 C28          6.0610    -2.2950    -0.8980 ca         1 EF5      -0.063500
     17 C29          6.9570    -2.7500     0.0850 ca         1 EF5      -0.120500
     18 C30          6.5020    -3.0100     1.3880 ca         1 EF5      -0.087000
     19 N2           1.8640     1.3750    -0.2960 nc         1 EF5      -0.713000
     20 S4           1.4600    -0.1310    -2.4080 ss         1 EF5       0.155600
     21 C5           2.8640    -0.4370    -1.4000 cd         1 EF5      -0.377600
     22 N6          -0.1440     1.8860    -1.3170 ns         1 EF5      -0.472400
     23 C7          -1.1750     1.8200    -2.2210 c          1 EF5       0.602100
     24 O8          -1.2040     1.0270    -3.1500 o          1 EF5      -0.551100
     25 C9          -2.3150     2.8110    -1.9710 c3         1 EF5      -0.114100
     26 C10         -3.4920     2.1130    -1.3000 ca         1 EF5      -0.024300
     27 O17         -7.2470     0.5310     2.0760 o          1 EF5      -0.521500
     28 O18         -8.1640    -0.1250    -0.2230 o          1 EF5      -0.521500
     29 O21          3.6620    -2.2310    -2.6850 o          1 EF5      -0.528100
     30 C31          5.1460    -2.8260     1.7060 ca         1 EF5      -0.120500
     31 C32          4.2470    -2.3720     0.7260 ca         1 EF5      -0.063500
     32 C33         -6.4240    -1.7190     0.9630 c3         1 EF5      -0.291400
     33 C34         -7.4430    -2.6680     1.6400 c3         1 EF5      -0.071100
     34 H1          -2.8510     2.5810     0.7200 ha         1 EF5       0.120500
     35 H2          -4.7510     1.4400     1.8110 ha         1 EF5       0.140500
     36 H3          -6.3050     0.3290    -2.0860 ha         1 EF5       0.140500
     37 H4          -4.3970     1.4730    -3.1630 ha         1 EF5       0.120500
     38 H5           5.5430     0.8260    -1.0630 ha         1 EF5       0.120000
     39 H6           7.4590     1.0820     0.4960 ha         1 EF5       0.114500
     40 H7           7.0780     1.0830     2.9600 ha         1 EF5       0.113000
     41 H8           4.7650     0.8480     3.8600 ha         1 EF5       0.114500
     42 H9           2.8420     0.5830     2.3080 ha         1 EF5       0.120000
     43 H10          6.4230    -2.0960    -1.9050 ha         1 EF5       0.123000
     44 H11          8.0050    -2.9000    -0.1640 ha         1 EF5       0.116000
     45 H12          7.1970    -3.3600     2.1490 ha         1 EF5       0.113000
     46 H13         -0.2540     2.5820    -0.5960 hn         1 EF5       0.342500
     47 H14         -1.9670     3.6280    -1.3290 hc         1 EF5       0.079200
     48 H15         -2.6360     3.2230    -2.9350 hc         1 EF5       0.079200
     49 H16          4.7910    -3.0350     2.7130 ha         1 EF5       0.116000
     50 H17          3.1980    -2.2380     0.9810 ha         1 EF5       0.123000
     51 H18         -6.1550    -2.0960    -0.0300 h1         1 EF5       0.096200
     52 H19         -5.5160    -1.6390     1.5710 h1         1 EF5       0.096200
     53 H20         -7.7190    -2.3010     2.6370 hc         1 EF5       0.054033
     54 H21         -8.3570    -2.7570     1.0390 hc         1 EF5       0.054033
     55 H22         -7.0130    -3.6700     1.7550 hc         1 EF5       0.054033
     56 S16         -7.0530    -0.0370     0.7340 sy         1 EF5       1.038500
@<TRIPOS>BOND
     1     1    10 1   
     2     1    19 1   
     3     1    21 2   
     4     2    19 2   
     5     2    20 1   
     6     2    22 1   
     7     3     4 ar  
     8     3    26 ar  
     9     3    34 1   
    10     4     5 ar  
    11     4    35 1   
    12     5     6 ar  
    13     5    56 1   
    14     6     7 ar  
    15     6    36 1   
    16     7    26 ar  
    17     7    37 1   
    18     8     9 1   
    19     8    21 1   
    20     8    29 2   
    21     9    16 ar  
    22     9    31 ar  
    23    10    11 ar  
    24    10    15 ar  
    25    11    12 ar  
    26    11    38 1   
    27    12    13 ar  
    28    12    39 1   
    29    13    14 ar  
    30    13    40 1   
    31    14    15 ar  
    32    14    41 1   
    33    15    42 1   
    34    16    17 ar  
    35    16    43 1   
    36    17    18 ar  
    37    17    44 1   
    38    18    30 ar  
    39    18    45 1   
    40    20    21 1   
    41    22    23 1   
    42    22    46 1   
    43    23    24 2   
    44    23    25 1   
    45    25    26 1   
    46    25    47 1   
    47    25    48 1   
    48    27    56 2   
    49    28    56 2   
    50    30    31 ar  
    51    30    49 1   
    52    31    50 1   
    53    32    33 1   
    54    32    51 1   
    55    32    52 1   
    56    32    56 1   
    57    33    53 1   
    58    33    54 1   
    59    33    55 1   
@<TRIPOS>SUBSTRUCTURE
     1 EF5         1 TEMP              0 ****  ****    0 ROOT
