@<TRIPOS>MOLECULE
EF5
   56    59     1     0     0
SMALL
abcg2


@<TRIPOS>ATOM
      1 C1           3.2630     0.5470     0.1270 cc         1 EF5       0.430500
      2 C3           1.1100     0.9630     0.2060 cd         1 EF5       0.522300
      3 C11         -4.4770     1.3520     1.3380 ca         1 EF5      -0.110500
      4 C12         -5.7430     0.8110     1.1760 ca         1 EF5      -0.014000
      5 C13         -6.2540     0.6700    -0.1050 ca         1 EF5      -0.259500
      6 C14         -5.5280     1.0690    -1.2190 ca         1 EF5      -0.014000
      7 C15         -4.2660     1.6090    -1.0390 ca         1 EF5      -0.110500
      8 C19          3.4410    -1.9660    -0.5550 c          1 EF5       0.628300
      9 C20          4.8160    -2.2430    -0.0690 ca         1 EF5      -0.156600
     10 C22          4.6660     0.9750     0.2130 ca         1 EF5      -0.134500
     11 C23          5.5730     0.6720    -0.8000 ca         1 EF5      -0.078000
     12 C24          6.9020     1.0470    -0.6840 ca         1 EF5      -0.116000
     13 C25          7.3360     1.7320     0.4420 ca         1 EF5      -0.098000
     14 C26          6.4310     2.0590     1.4450 ca         1 EF5      -0.116000
     15 C27          5.1000     1.6910     1.3270 ca         1 EF5      -0.078000
     16 C28          5.6990    -2.9240    -0.9040 ca         1 EF5      -0.063500
     17 C29          6.9900    -3.1900    -0.4780 ca         1 EF5      -0.120500
     18 C30          7.3940    -2.8090     0.7950 ca         1 EF5      -0.087000
     19 N2           2.2960     1.4670     0.3840 nc         1 EF5      -0.713000
     20 S4           1.0590    -0.6800    -0.2970 ss         1 EF5       0.155600
     21 C5           2.7950    -0.6980    -0.2240 cd         1 EF5      -0.377600
     22 N6          -0.0100     1.7210     0.3990 ns         1 EF5      -0.472400
     23 C7          -1.2840     1.2760     0.1920 c          1 EF5       0.602100
     24 O8          -1.5010     0.1340    -0.1520 o          1 EF5      -0.551100
     25 C9          -2.3530     2.3190     0.4150 c3         1 EF5      -0.114100
     26 C10         -3.7290     1.7540     0.2360 ca         1 EF5      -0.024300
     27 O17         -8.6410     0.1710     0.8870 o          1 EF5      -0.521500
     28 O18         -8.4030     0.4220    -1.6030 o          1 EF5      -0.521500
     29 O21          2.8290    -2.7960    -1.2070 o          1 EF5      -0.528100
     30 C31          6.5050    -2.1610     1.6430 ca         1 EF5      -0.120500
     31 C32          5.2210    -1.8720     1.2100 ca         1 EF5      -0.063500
     32 C33         -7.5210    -1.8030    -0.4760 c3         1 EF5      -0.291400
     33 C34         -8.8060    -2.5790    -0.7060 c3         1 EF5      -0.071100
     34 H1          -4.0740     1.4680     2.3360 ha         1 EF5       0.120500
     35 H2          -6.3150     0.5110     2.0440 ha         1 EF5       0.140500
     36 H3          -5.9330     0.9650    -2.2170 ha         1 EF5       0.140500
     37 H4          -3.6990     1.9270    -1.9050 ha         1 EF5       0.120500
     38 H5           5.2370     0.1540    -1.6890 ha         1 EF5       0.120000
     39 H6           7.5980     0.8050    -1.4760 ha         1 EF5       0.114500
     40 H7           8.3750     2.0200     0.5350 ha         1 EF5       0.113000
     41 H8           6.7640     2.5990     2.3210 ha         1 EF5       0.114500
     42 H9           4.3990     1.9380     2.1140 ha         1 EF5       0.120000
     43 H10          5.3860    -3.2200    -1.8970 ha         1 EF5       0.123000
     44 H11          7.6810    -3.6990    -1.1370 ha         1 EF5       0.116000
     45 H12          8.4020    -3.0210     1.1270 ha         1 EF5       0.113000
     46 H13          0.1510     2.6790     0.6810 hn         1 EF5       0.342500
     47 H14         -2.2300     2.7430     1.4150 hc         1 EF5       0.079200
     48 H15         -2.1770     3.1390    -0.2880 hc         1 EF5       0.079200
     49 H16          6.8120    -1.8760     2.6400 ha         1 EF5       0.116000
     50 H17          4.5330    -1.3670     1.8760 ha         1 EF5       0.123000
     51 H18         -6.8190    -1.9200    -1.3030 h1         1 EF5       0.096200
     52 H19         -7.0210    -2.1070     0.4450 h1         1 EF5       0.096200
     53 H20         -9.5010    -2.4610     0.1230 hc         1 EF5       0.054033
     54 H21         -9.2990    -2.2760    -1.6280 hc         1 EF5       0.054033
     55 H22         -8.5650    -3.6380    -0.7900 hc         1 EF5       0.054033
     56 S16         -7.8590    -0.0500    -0.3290 sy         1 EF5       1.038500
@<TRIPOS>BOND
     1     1    10 1   
     2     1    19 1   
     3     1    21 2   
     4     2    19 2   
     5     2    20 1   
     6     2    22 1   
     7     3     4 ar  
     8     3    26 ar  
     9     3    34 1   
    10     4     5 ar  
    11     4    35 1   
    12     5     6 ar  
    13     5    56 1   
    14     6     7 ar  
    15     6    36 1   
    16     7    26 ar  
    17     7    37 1   
    18     8     9 1   
    19     8    21 1   
    20     8    29 2   
    21     9    16 ar  
    22     9    31 ar  
    23    10    11 ar  
    24    10    15 ar  
    25    11    12 ar  
    26    11    38 1   
    27    12    13 ar  
    28    12    39 1   
    29    13    14 ar  
    30    13    40 1   
    31    14    15 ar  
    32    14    41 1   
    33    15    42 1   
    34    16    17 ar  
    35    16    43 1   
    36    17    18 ar  
    37    17    44 1   
    38    18    30 ar  
    39    18    45 1   
    40    20    21 1   
    41    22    23 1   
    42    22    46 1   
    43    23    24 2   
    44    23    25 1   
    45    25    26 1   
    46    25    47 1   
    47    25    48 1   
    48    27    56 2   
    49    28    56 2   
    50    30    31 ar  
    51    30    49 1   
    52    31    50 1   
    53    32    33 1   
    54    32    51 1   
    55    32    52 1   
    56    32    56 1   
    57    33    53 1   
    58    33    54 1   
    59    33    55 1   
@<TRIPOS>SUBSTRUCTURE
     1 EF5         1 TEMP              0 ****  ****    0 ROOT
