@<TRIPOS>MOLECULE
EF6
   36    38     1     0     0
SMALL
abcg2


@<TRIPOS>ATOM
      1 N            7.6010    17.9070     9.6460 nu         1 EF6      -0.863100
      2 C            7.5790    19.1310     8.9040 ca         1 EF6       0.195000
      3 O            6.9960    18.8020    11.9090 o          1 EF6      -0.528000
      4 C1           8.7070    19.5780     8.2030 ca         1 EF6      -0.064200
      5 C10         10.7190    20.8910    10.9680 ca         1 EF6      -0.037500
      6 C11         11.8960    20.1590    10.8600 ca         1 EF6      -0.277500
      7 C12         11.9120    18.7770    11.0290 ca         1 EF6      -0.037500
      8 C13         10.7190    18.1080    11.2490 ca         1 EF6      -0.038500
      9 C2           8.7220    20.8540     7.5770 ca         1 EF6      -0.086800
     10 C3          10.0440    21.0050     7.0480 cc         1 EF6       0.047800
     11 C4          10.7610    19.8790     7.3430 cd         1 EF6      -0.144100
     12 C5           7.5880    21.6700     7.6310 ca         1 EF6      -0.038000
     13 C6           6.4700    21.2080     8.3040 ca         1 EF6      -0.139000
     14 C7           6.4660    19.9530     8.9360 ca         1 EF6      -0.048000
     15 C8           9.5340    18.8350    11.3080 ca         1 EF6      -0.263500
     16 C9           9.5250    20.2230    11.2000 ca         1 EF6      -0.038500
     17 N1           9.9450    19.0140     8.0350 na         1 EF6      -0.227700
     18 N2          14.2560    21.2250    11.8400 n8         1 EF6      -0.998100
     19 O1          13.0640    22.3160     9.9690 o          1 EF6      -0.530500
     20 O2          14.1960    20.1160     9.6340 o          1 EF6      -0.530500
     21 O3           8.1660    16.6090    11.6810 o          1 EF6      -0.528000
     22 S            7.9820    17.9760    11.2640 sy         1 EF6       1.158600
     23 CL          10.6360    22.3920     6.2040 cl         1 EF6      -0.147000
     24 H1           8.0840    17.1310     9.2040 hn         1 EF6       0.482000
     25 H2          10.7280    21.9630    10.8390 ha         1 EF6       0.141500
     26 H3          12.8390    18.2260    10.9570 ha         1 EF6       0.141500
     27 H4          10.7030    17.0300    11.3380 ha         1 EF6       0.144500
     28 H5          11.7850    19.6290     7.1240 h4         1 EF6       0.239000
     29 H6           7.5920    22.6460     7.1640 ha         1 EF6       0.131000
     30 H7           5.5810    21.8230     8.3560 ha         1 EF6       0.125000
     31 H8           5.5920    19.6200     9.4790 ha         1 EF6       0.142000
     32 H9           8.5970    20.7730    11.2590 ha         1 EF6       0.144500
     33 H10         10.2420    18.1170     8.3820 hn         1 EF6       0.351000
     34 H11         13.7900    21.8430    12.4980 hn         1 EF6       0.481000
     35 H12         14.5520    20.3560    12.2730 hn         1 EF6       0.481000
     36 S1          13.4120    21.0050    10.4560 sy         1 EF6       1.159600
@<TRIPOS>BOND
     1     1     2 1   
     2     1    22 1   
     3     1    24 1   
     4     2     4 ar  
     5     2    14 ar  
     6     3    22 2   
     7     4     9 ar  
     8     4    17 1   
     9     5     6 ar  
    10     5    16 ar  
    11     5    25 1   
    12     6     7 ar  
    13     6    36 1   
    14     7     8 ar  
    15     7    26 1   
    16     8    15 ar  
    17     8    27 1   
    18     9    10 1   
    19     9    12 ar  
    20    10    11 2   
    21    10    23 1   
    22    11    17 1   
    23    11    28 1   
    24    12    13 ar  
    25    12    29 1   
    26    13    14 ar  
    27    13    30 1   
    28    14    31 1   
    29    15    16 ar  
    30    15    22 1   
    31    16    32 1   
    32    17    33 1   
    33    18    34 1   
    34    18    35 1   
    35    18    36 1   
    36    19    36 2   
    37    20    36 2   
    38    21    22 2   
@<TRIPOS>SUBSTRUCTURE
     1 EF6         1 TEMP              0 ****  ****    0 ROOT
