@<TRIPOS>MOLECULE
EF6
   36    38     1     0     0
SMALL
No Charge or Current Charge


@<TRIPOS>ATOM
      1 N            8.1690    18.1900     9.4060 nu         1 EF6      -0.863100
      2 C            8.0600    19.3380     8.6090 ca         1 EF6       0.195000
      3 O            7.2110    18.5990    11.6790 o          1 EF6      -0.528000
      4 C1           8.2300    19.2540     7.2100 ca         1 EF6      -0.064200
      5 C10         10.8660    21.0250    12.4450 ca         1 EF6      -0.037500
      6 C11         12.1370    20.6290    11.9760 ca         1 EF6      -0.277500
      7 C12         12.2630    19.4330    11.2350 ca         1 EF6      -0.037500
      8 C13         11.1300    18.6460    10.9650 ca         1 EF6      -0.038500
      9 C2           8.1410    20.3680     6.4140 ca         1 EF6      -0.086800
     10 C3           8.3660    19.9460     5.0670 cc         1 EF6       0.047800
     11 C4           8.5830    18.5780     5.0890 cd         1 EF6      -0.144100
     12 C5           7.8720    21.6420     6.9290 ca         1 EF6      -0.038000
     13 C6           7.6870    21.7590     8.3200 ca         1 EF6      -0.139000
     14 C7           7.7780    20.6170     9.1520 ca         1 EF6      -0.048000
     15 C8           9.8600    19.0440    11.4320 ca         1 EF6      -0.263500
     16 C9           9.7330    20.2370    12.1740 ca         1 EF6      -0.038500
     17 N1           8.4980    18.1260     6.4320 na         1 EF6      -0.227700
     18 N2          14.0380    21.0640    13.7880 n8         1 EF6      -0.998100
     19 O1          13.1930    23.0300    12.5670 o          1 EF6      -0.530500
     20 O2          14.6830    21.2630    11.4440 o          1 EF6      -0.530500
     21 O3           8.7650    16.6150    11.1870 o          1 EF6      -0.528000
     22 S            8.4150    18.0320    11.0640 sy         1 EF6       1.158600
     23 Cl           8.3590    20.9840     3.6760 cl         1 EF6      -0.147000
     24 H1           8.5150    17.3410     8.9860 hn         1 EF6       0.482000
     25 H2          10.7500    21.9430    13.0200 ha         1 EF6       0.141500
     26 H3          13.2340    19.1100    10.8620 ha         1 EF6       0.141500
     27 H4          11.2430    17.7290    10.3880 ha         1 EF6       0.144500
     28 H5           8.7830    17.9050     4.2600 h4         1 EF6       0.239000
     29 H6           7.8060    22.5110     6.2780 ha         1 EF6       0.131000
     30 H7           7.4710    22.7310     8.7570 ha         1 EF6       0.125000
     31 H8           7.6220    20.7410    10.2170 ha         1 EF6       0.142000
     32 H9           8.7620    20.5600    12.5460 ha         1 EF6       0.144500
     33 H10          8.5930    17.1680     6.7510 hn         1 EF6       0.351000
     34 H11         13.5720    20.1610    13.8130 hn         1 EF6       0.481000
     35 H12         15.0100    20.8310    13.6030 hn         1 EF6       0.481000
     36 S1          13.5820    21.6400    12.3270 sy         1 EF6       1.159600
@<TRIPOS>BOND
     1     1     2 1   
     2     1    22 1   
     3     1    24 1   
     4     2     4 ar  
     5     2    14 ar  
     6     3    22 2   
     7     4     9 ar  
     8     4    17 1   
     9     5     6 ar  
    10     5    16 ar  
    11     5    25 1   
    12     6     7 ar  
    13     6    36 1   
    14     7     8 ar  
    15     7    26 1   
    16     8    15 ar  
    17     8    27 1   
    18     9    10 1   
    19     9    12 ar  
    20    10    11 2   
    21    10    23 1   
    22    11    17 1   
    23    11    28 1   
    24    12    13 ar  
    25    12    29 1   
    26    13    14 ar  
    27    13    30 1   
    28    14    31 1   
    29    15    16 ar  
    30    15    22 1   
    31    16    32 1   
    32    17    33 1   
    33    18    34 1   
    34    18    35 1   
    35    18    36 1   
    36    19    36 2   
    37    20    36 2   
    38    21    22 2   
@<TRIPOS>SUBSTRUCTURE
     1 EF6         1 TEMP              0 ****  ****    0 ROOT
