@<TRIPOS>MOLECULE
EF9
   31    31     1     0     0
SMALL
No Charge or Current Charge


@<TRIPOS>ATOM
      1 N1          30.4370    41.7880    26.6560 n          1 EF9      -0.382800
      2 C4          28.1780    42.9980    26.9210 c6         1 EF9      -0.215700
      3 C5          28.4360    43.1090    28.4430 c6         1 EF9      -0.040400
      4 C6          31.4970    41.3560    25.8220 c          1 EF9       0.623100
      5 C7          32.3710    40.1570    26.2640 c3         1 EF9      -0.132700
      6 C8          32.5720    39.1430    25.1160 c3         1 EF9       0.081600
      7 C10         27.1100    41.9460    26.5310 c          1 EF9       0.723000
      8 C1          29.3270    41.9590    28.9490 c6         1 EF9      -0.085400
      9 C2          30.6360    41.8580    28.1350 c6         1 EF9       0.112000
     10 C3          29.4970    42.8220    26.1280 c6         1 EF9       0.119000
     11 C9          33.7260    40.6550    26.8210 c3         1 EF9      -0.082100
     12 O1          31.7110    41.9140    24.7500 o          1 EF9      -0.613100
     13 O2          27.3360    40.7610    26.7240 o          1 EF9      -0.727000
     14 O3          26.0780    42.3550    26.0200 o          1 EF9      -0.727000
     15 S1          31.0010    38.3390    24.5590 sh         1 EF9      -0.382800
     16 H1          27.7570    43.9660    26.6140 hc         1 EF9       0.032700
     17 H2          28.9320    44.0660    28.6580 hc         1 EF9       0.020700
     18 H3          27.4840    43.1220    28.9910 hc         1 EF9       0.020700
     19 H4          31.8700    39.6310    27.0830 hc         1 EF9       0.065700
     20 H5          33.2510    38.3480    25.4510 h1         1 EF9       0.053200
     21 H6          33.0370    39.6390    24.2540 h1         1 EF9       0.053200
     22 H7          28.7870    41.0060    28.8960 hc         1 EF9       0.045200
     23 H8          29.5660    42.1150    30.0090 hc         1 EF9       0.045200
     24 H9          31.1910    40.9870    28.5030 h1         1 EF9       0.017200
     25 H10         31.2540    42.7410    28.3510 h1         1 EF9       0.017200
     26 H11         30.0300    43.7840    26.1220 h1         1 EF9       0.041700
     27 H12         29.2480    42.5920    25.0810 h1         1 EF9       0.041700
     28 H13         33.5730    41.3490    27.6560 hc         1 EF9       0.031700
     29 H14         34.3280    39.8140    27.1870 hc         1 EF9       0.031700
     30 H15         34.3000    41.1760    26.0450 hc         1 EF9       0.031700
     31 H17         31.5640    37.5580    23.6060 hs         1 EF9       0.177800
@<TRIPOS>BOND
     1     1     4 1   
     2     1     9 1   
     3     1    10 1   
     4     2     3 1   
     5     2     7 1   
     6     2    10 1   
     7     2    16 1   
     8     3     8 1   
     9     3    17 1   
    10     3    18 1   
    11     4     5 1   
    12     4    12 2   
    13     5     6 1   
    14     5    11 1   
    15     5    19 1   
    16     6    15 1   
    17     6    20 1   
    18     6    21 1   
    19     7    13 1   
    20     7    14 1   
    21     8     9 1   
    22     8    22 1   
    23     8    23 1   
    24     9    24 1   
    25     9    25 1   
    26    10    26 1   
    27    10    27 1   
    28    11    28 1   
    29    11    29 1   
    30    11    30 1   
    31    15    31 1   
@<TRIPOS>SUBSTRUCTURE
     1 EF9         1 TEMP              0 ****  ****    0 ROOT
