@<TRIPOS>MOLECULE
EF9
   31    31     1     0     0
SMALL
abcg2


@<TRIPOS>ATOM
      1 N1          30.6380    42.1170    26.7830 n          1 EF9      -0.382800
      2 C4          28.3110    42.8730    26.9490 c6         1 EF9      -0.215700
      3 C5          28.3800    42.7080    28.4650 c6         1 EF9      -0.040400
      4 C6          31.3950    41.4980    25.8550 c          1 EF9       0.623100
      5 C7          32.2820    40.3310    26.2840 c3         1 EF9      -0.132700
      6 C8          32.2020    39.2080    25.2580 c3         1 EF9       0.081600
      7 C10         27.6320    41.6830    26.2170 c          1 EF9       0.723000
      8 C1          29.4100    41.6570    28.8570 c6         1 EF9      -0.085400
      9 C2          30.7580    41.9680    28.2250 c6         1 EF9       0.112000
     10 C3          29.7040    43.1680    26.4000 c6         1 EF9       0.119000
     11 C9          33.7230    40.8230    26.4230 c3         1 EF9      -0.082100
     12 O1          31.4090    41.8440    24.6790 o          1 EF9      -0.613100
     13 O2          26.8990    40.9400    26.8980 o          1 EF9      -0.727000
     14 O3          27.8370    41.5930    24.9890 o          1 EF9      -0.727000
     15 S1          30.5150    38.5060    25.2620 sh         1 EF9      -0.382800
     16 H1          27.6980    43.7560    26.7260 hc         1 EF9       0.032700
     17 H2          28.6640    43.6650    28.9170 hc         1 EF9       0.020700
     18 H3          27.4010    42.4520    28.8670 hc         1 EF9       0.020700
     19 H4          31.9670    39.9120    27.2410 hc         1 EF9       0.065700
     20 H5          32.9150    38.4280    25.5220 h1         1 EF9       0.053200
     21 H6          32.4410    39.5750    24.2620 h1         1 EF9       0.053200
     22 H7          29.0770    40.6670    28.5370 hc         1 EF9       0.045200
     23 H8          29.5320    41.6210    29.9420 hc         1 EF9       0.045200
     24 H9          31.4900    41.2080    28.4810 h1         1 EF9       0.017200
     25 H10         31.1400    42.9130    28.6300 h1         1 EF9       0.017200
     26 H11         30.0690    44.1220    26.8000 h1         1 EF9       0.041700
     27 H12         29.6810    43.2530    25.3190 h1         1 EF9       0.041700
     28 H13         33.8030    41.6080    27.1760 hc         1 EF9       0.031700
     29 H14         34.3800    40.0070    26.7230 hc         1 EF9       0.031700
     30 H15         34.0900    41.2250    25.4780 hc         1 EF9       0.031700
     31 H17         30.6440    37.7250    24.1840 hs         1 EF9       0.177800
@<TRIPOS>BOND
     1     1     4 1   
     2     1     9 1   
     3     1    10 1   
     4     2     3 1   
     5     2     7 1   
     6     2    10 1   
     7     2    16 1   
     8     3     8 1   
     9     3    17 1   
    10     3    18 1   
    11     4     5 1   
    12     4    12 2   
    13     5     6 1   
    14     5    11 1   
    15     5    19 1   
    16     6    15 1   
    17     6    20 1   
    18     6    21 1   
    19     7    13 1   
    20     7    14 1   
    21     8     9 1   
    22     8    22 1   
    23     8    23 1   
    24     9    24 1   
    25     9    25 1   
    26    10    26 1   
    27    10    27 1   
    28    11    28 1   
    29    11    29 1   
    30    11    30 1   
    31    15    31 1   
@<TRIPOS>SUBSTRUCTURE
     1 EF9         1 TEMP              0 ****  ****    0 ROOT
