@<TRIPOS>MOLECULE
EFB
  129   131     1     0     0
SMALL
No Charge or Current Charge


@<TRIPOS>ATOM
      1 C1A         -5.4370     2.8460    -0.4090 c3         1 EFB      -0.081100
      2 C10         -4.6620     1.6160    -0.9870 c6         1 EFB      -0.069700
      3 C11         -3.3130     1.4150    -0.2330 c6         1 EFB       0.177300
      4 C12         -2.5490     0.1640    -0.7580 c6         1 EFB      -0.093700
      5 C1B         -1.9920     0.3510    -2.2070 c3         1 EFB      -0.079100
      6 O37         -2.4940     2.6020    -0.3310 os         1 EFB      -0.448100
      7 C36         -1.4210     2.7880     0.4980 c          1 EFB       0.599300
      8 O36         -1.1240     2.0550     1.4290 o          1 EFB      -0.491000
      9 C35         -0.6570     4.0030     0.1160 ce         1 EFB      -0.287200
     10 C34          0.4710     4.4200     0.7420 c2         1 EFB      -0.129200
     11 C33          1.2860     5.6590     0.3860 c3         1 EFB      -0.075500
     12 C3B          1.4460     5.8510    -1.1450 c3         1 EFB      -0.090100
     13 C32          2.6270     5.7870     1.1910 c3         1 EFB       0.186300
     14 O32          2.2820     5.9930     2.5670 oh         1 EFB      -0.656000
     15 C31          3.6670     4.6150     1.1230 c3         1 EFB      -0.153700
     16 C3A          4.9380     4.9590     1.9550 c3         1 EFB      -0.081100
     17 C30          4.0990     4.2530    -0.3170 c          1 EFB       0.577100
     18 O30          4.5040     5.1260    -1.0770 o          1 EFB      -0.549100
     19 C29          4.0290     2.7780    -0.8040 c3         1 EFB      -0.160700
     20 C2D          2.6370     2.1160    -0.6010 c3         1 EFB      -0.078100
     21 C28          5.2550     1.9570    -0.2800 c3         1 EFB       0.195300
     22 O28          5.1320     1.7240     1.1220 oh         1 EFB      -0.657000
     23 C27          5.6010     0.6090    -0.9990 c3         1 EFB      -0.150700
     24 C2C          5.3910     0.6150    -2.5370 c3         1 EFB      -0.078100
     25 C26          4.9840    -0.6710    -0.3570 c          1 EFB       0.581100
     26 O26          3.7740    -0.7530    -0.1640 o          1 EFB      -0.506100
     27 C25          5.9760    -1.8690    -0.0250 c3         1 EFB       0.091000
     28 C2B          6.7990    -1.4870     1.2370 c3         1 EFB      -0.127100
     29 O25          6.9320    -2.0730    -1.1010 oh         1 EFB      -0.639000
     30 C24          5.1380    -3.1970     0.2130 c3         1 EFB       0.193300
     31 O24          4.3510    -3.5020    -0.9530 oh         1 EFB      -0.658000
     32 C23          5.8980    -4.5100     0.6580 c3         1 EFB      -0.080700
     33 C2A          6.7090    -5.2100    -0.4680 c3         1 EFB      -0.076100
     34 C22          4.9570    -5.5330     1.3730 c3         1 EFB      -0.048200
     35 C21          3.6580    -5.8000     0.6360 c2         1 EFB      -0.224200
     36 C20          2.5220    -5.1120     0.8640 ce         1 EFB      -0.187000
     37 C19          1.2990    -5.2280     0.0710 ce         1 EFB      -0.199000
     38 C18          0.2870    -4.3490     0.2330 c2         1 EFB      -0.192200
     39 C17         -1.0070    -4.2200    -0.5650 c3         1 EFB      -0.022500
     40 C1C         -0.8230    -4.5740    -2.0720 c3         1 EFB      -0.069400
     41 C1D          0.1630    -3.6710    -2.8470 c3         1 EFB      -0.091100
     42 C16         -1.5830    -2.7950    -0.3250 c3         1 EFB      -0.075400
     43 C15         -2.8950    -2.4260    -1.0610 c3         1 EFB      -0.067400
     44 C13         -3.4950    -1.0600    -0.6100 c6         1 EFB       0.170300
     45 O14         -4.6900    -0.8340    -1.3840 os         1 EFB      -0.483000
     46 C8          -5.5120     0.2910    -0.9620 c6         1 EFB       0.309000
     47 O9          -5.9340     0.0770     0.4120 os         1 EFB      -0.471000
     48 C7          -6.7740     0.3890    -1.9160 c          1 EFB       0.577100
     49 O7          -6.9160     1.2410    -2.7910 o          1 EFB      -0.497100
     50 C6          -7.8730    -0.6530    -1.6510 c6         1 EFB      -0.179400
     51 C5          -8.1710    -0.8030    -0.1340 c6         1 EFB      -0.079700
     52 C51         -8.9810     0.4220     0.3880 c3         1 EFB      -0.088100
     53 C4          -6.8280    -1.0370     0.6250 c6         1 EFB       0.179300
     54 C3          -6.9830    -1.2090     2.1620 c3         1 EFB      -0.104400
     55 C2          -5.6770    -1.5950     2.8960 c3         1 EFB       0.166300
     56 C1          -5.8450    -1.6060     4.4270 c3         1 EFB      -0.125100
     57 O2          -5.2560    -2.8980     2.4790 oh         1 EFB      -0.660000
     58 H1          -5.6450     2.7220     0.6610 hc         1 EFB       0.044033
     59 H2          -4.8590     3.7700    -0.5250 hc         1 EFB       0.044033
     60 H3          -6.3960     3.0060    -0.9130 hc         1 EFB       0.044033
     61 H4          -4.4370     1.8630    -2.0330 hc         1 EFB       0.087700
     62 H5          -3.5520     1.2530     0.8300 h1         1 EFB       0.080700
     63 H6          -1.6780     0.0070    -0.1120 hc         1 EFB       0.062700
     64 H7          -2.7940     0.4220    -2.9510 hc         1 EFB       0.040033
     65 H8          -1.3810     1.2570    -2.2890 hc         1 EFB       0.040033
     66 H9          -1.3490    -0.4870    -2.4990 hc         1 EFB       0.040033
     67 H10         -1.0680     4.5510    -0.7280 ha         1 EFB       0.198000
     68 H11          0.8530     3.8560     1.5980 ha         1 EFB       0.204000
     69 H12          0.6810     6.5200     0.6980 hc         1 EFB       0.058700
     70 H13          0.4780     6.0780    -1.6080 hc         1 EFB       0.042367
     71 H14          2.1140     6.6930    -1.3640 hc         1 EFB       0.042367
     72 H15          1.8420     4.9570    -1.6340 hc         1 EFB       0.042367
     73 H16          3.1350     6.6880     0.8180 h1         1 EFB       0.052700
     74 H17          1.7370     6.8080     2.6100 ho         1 EFB       0.444000
     75 H18          3.2310     3.7220     1.5800 hc         1 EFB       0.082700
     76 H19          4.7040     5.0450     3.0220 hc         1 EFB       0.048033
     77 H20          5.7080     4.1880     1.8490 hc         1 EFB       0.048033
     78 H21          5.3740     5.9100     1.6240 hc         1 EFB       0.048033
     79 H22          4.1650     2.8650    -1.8870 hc         1 EFB       0.066700
     80 H23          1.8380     2.7770    -0.9470 hc         1 EFB       0.047367
     81 H24          2.5520     1.2000    -1.1940 hc         1 EFB       0.047367
     82 H25          2.4500     1.8660     0.4490 hc         1 EFB       0.047367
     83 H26          6.1230     2.6090    -0.4510 h1         1 EFB       0.039700
     84 H27          6.0350     1.7540     1.5070 ho         1 EFB       0.444000
     85 H28          6.6860     0.5060    -0.8900 hc         1 EFB       0.053700
     86 H29          5.8820     1.4820    -2.9960 hc         1 EFB       0.048033
     87 H30          5.8170    -0.2880    -2.9900 hc         1 EFB       0.048033
     88 H31          4.3250     0.6420    -2.7930 hc         1 EFB       0.048033
     89 H32          7.5860    -2.2200     1.4470 hc         1 EFB       0.052033
     90 H33          7.2900    -0.5140     1.1190 hc         1 EFB       0.052033
     91 H34          6.1470    -1.4240     2.1170 hc         1 EFB       0.052033
     92 H35          7.7190    -1.5160    -0.9180 ho         1 EFB       0.441000
     93 H36          4.4570    -2.9580     1.0410 h1         1 EFB       0.046700
     94 H37          3.7470    -4.2230    -0.6650 ho         1 EFB       0.453000
     95 H38          6.6300    -4.2280     1.4220 hc         1 EFB       0.051700
     96 H39          6.0590    -5.5320    -1.2900 hc         1 EFB       0.038367
     97 H40          7.4830    -4.5540    -0.8760 hc         1 EFB       0.038367
     98 H41          7.2180    -6.0990    -0.0780 hc         1 EFB       0.038367
     99 H42          5.4940    -6.4750     1.5420 hc         1 EFB       0.047200
    100 H43          4.7290    -5.1460     2.3750 hc         1 EFB       0.047200
    101 H44          3.7180    -6.5540    -0.1530 ha         1 EFB       0.173000
    102 H45          2.5100    -4.3530     1.6510 ha         1 EFB       0.170000
    103 H46          1.2640    -6.0050    -0.6960 ha         1 EFB       0.175000
    104 H47          0.3920    -3.5860     1.0070 ha         1 EFB       0.168000
    105 H48         -1.7310    -4.9360    -0.1560 hc         1 EFB       0.054700
    106 H49         -0.4870    -5.6140    -2.1560 hc         1 EFB       0.038700
    107 H50         -1.7970    -4.5450    -2.5740 hc         1 EFB       0.038700
    108 H51          1.1590    -3.6870    -2.3880 hc         1 EFB       0.033367
    109 H52          0.2610    -4.0200    -3.8810 hc         1 EFB       0.033367
    110 H53         -0.1880    -2.6340    -2.8740 hc         1 EFB       0.033367
    111 H54         -1.7590    -2.6740     0.7510 hc         1 EFB       0.046200
    112 H55         -0.8090    -2.0650    -0.5920 hc         1 EFB       0.046200
    113 H56         -2.7220    -2.4180    -2.1430 hc         1 EFB       0.052200
    114 H57         -3.6320    -3.2160    -0.8730 hc         1 EFB       0.052200
    115 H58         -3.7710    -1.1680     0.4500 h1         1 EFB       0.062700
    116 H59         -8.7660    -0.4430    -2.2540 hc         1 EFB       0.075700
    117 H60         -7.4530    -1.6180    -1.9660 hc         1 EFB       0.075700
    118 H61         -8.8140    -1.6830     0.0090 hc         1 EFB       0.054700
    119 H62         -9.8790     0.5870    -0.2190 hc         1 EFB       0.040033
    120 H63         -9.3170     0.2720     1.4210 hc         1 EFB       0.040033
    121 H64         -8.3880     1.3440     0.3600 hc         1 EFB       0.040033
    122 H65         -6.3580    -1.9510     0.2320 h1         1 EFB       0.053700
    123 H66         -7.3510    -0.2720     2.5970 hc         1 EFB       0.053700
    124 H67         -7.7480    -1.9660     2.3730 hc         1 EFB       0.053700
    125 H68         -4.9070    -0.8500     2.6460 h1         1 EFB       0.089700
    126 H69         -6.6190    -2.3190     4.7360 hc         1 EFB       0.041700
    127 H70         -4.9030    -1.8830     4.9170 hc         1 EFB       0.041700
    128 H71         -6.1330    -0.6110     4.7880 hc         1 EFB       0.041700
    129 H72         -5.8880    -3.5410     2.8650 ho         1 EFB       0.433000
@<TRIPOS>BOND
     1     1     2 1   
     2     1    58 1   
     3     1    59 1   
     4     1    60 1   
     5     2     3 1   
     6     2    46 1   
     7     2    61 1   
     8     3     4 1   
     9     3     6 1   
    10     3    62 1   
    11     4     5 1   
    12     4    44 1   
    13     4    63 1   
    14     5    64 1   
    15     5    65 1   
    16     5    66 1   
    17     6     7 1   
    18     7     8 2   
    19     7     9 1   
    20     9    10 2   
    21     9    67 1   
    22    10    11 1   
    23    10    68 1   
    24    11    12 1   
    25    11    13 1   
    26    11    69 1   
    27    12    70 1   
    28    12    71 1   
    29    12    72 1   
    30    13    14 1   
    31    13    15 1   
    32    13    73 1   
    33    14    74 1   
    34    15    16 1   
    35    15    17 1   
    36    15    75 1   
    37    16    76 1   
    38    16    77 1   
    39    16    78 1   
    40    17    18 2   
    41    17    19 1   
    42    19    20 1   
    43    19    21 1   
    44    19    79 1   
    45    20    80 1   
    46    20    81 1   
    47    20    82 1   
    48    21    22 1   
    49    21    23 1   
    50    21    83 1   
    51    22    84 1   
    52    23    24 1   
    53    23    25 1   
    54    23    85 1   
    55    24    86 1   
    56    24    87 1   
    57    24    88 1   
    58    25    26 2   
    59    25    27 1   
    60    27    28 1   
    61    27    29 1   
    62    27    30 1   
    63    28    89 1   
    64    28    90 1   
    65    28    91 1   
    66    29    92 1   
    67    30    31 1   
    68    30    32 1   
    69    30    93 1   
    70    31    94 1   
    71    32    33 1   
    72    32    34 1   
    73    32    95 1   
    74    33    96 1   
    75    33    97 1   
    76    33    98 1   
    77    34    35 1   
    78    34    99 1   
    79    34   100 1   
    80    35    36 2   
    81    35   101 1   
    82    36    37 1   
    83    36   102 1   
    84    37    38 2   
    85    37   103 1   
    86    38    39 1   
    87    38   104 1   
    88    39    40 1   
    89    39    42 1   
    90    39   105 1   
    91    40    41 1   
    92    40   106 1   
    93    40   107 1   
    94    41   108 1   
    95    41   109 1   
    96    41   110 1   
    97    42    43 1   
    98    42   111 1   
    99    42   112 1   
   100    43    44 1   
   101    43   113 1   
   102    43   114 1   
   103    44    45 1   
   104    44   115 1   
   105    45    46 1   
   106    46    47 1   
   107    46    48 1   
   108    47    53 1   
   109    48    49 2   
   110    48    50 1   
   111    50    51 1   
   112    50   116 1   
   113    50   117 1   
   114    51    52 1   
   115    51    53 1   
   116    51   118 1   
   117    52   119 1   
   118    52   120 1   
   119    52   121 1   
   120    53    54 1   
   121    53   122 1   
   122    54    55 1   
   123    54   123 1   
   124    54   124 1   
   125    55    56 1   
   126    55    57 1   
   127    55   125 1   
   128    56   126 1   
   129    56   127 1   
   130    56   128 1   
   131    57   129 1   
@<TRIPOS>SUBSTRUCTURE
     1 EFB         1 TEMP              0 ****  ****    0 ROOT
