@<TRIPOS>MOLECULE
EFB
  129   131     1     0     0
SMALL
abcg2


@<TRIPOS>ATOM
      1 C1A         -5.0150     2.7850    -0.6160 c3         1 EFB      -0.081100
      2 C10         -4.4230     1.5010    -1.1890 c6         1 EFB      -0.069700
      3 C11         -3.0130     1.2310    -0.6630 c6         1 EFB       0.177300
      4 C12         -2.4250    -0.0610    -1.2250 c6         1 EFB      -0.093700
      5 C1B         -2.1710    -0.0240    -2.7280 c3         1 EFB      -0.079100
      6 O37         -2.1380     2.3060    -1.0250 os         1 EFB      -0.448100
      7 C36         -1.6540     3.1220    -0.0910 c          1 EFB       0.599300
      8 O36         -2.0300     3.1410     1.0580 o          1 EFB      -0.491000
      9 C35         -0.5820     3.9670    -0.6480 ce         1 EFB      -0.287200
     10 C34          0.0140     4.8900     0.1070 c2         1 EFB      -0.129200
     11 C33          1.1600     5.7610    -0.2950 c3         1 EFB      -0.075500
     12 C3B          1.7830     5.3860    -1.6320 c3         1 EFB      -0.090100
     13 C32          2.1790     5.8680     0.8660 c3         1 EFB       0.186300
     14 O32          1.5580     6.4450     1.9940 oh         1 EFB      -0.656000
     15 C31          2.7540     4.5130     1.3030 c3         1 EFB      -0.153700
     16 C3A          3.4570     4.5870     2.6670 c3         1 EFB      -0.081100
     17 C30          3.7970     3.9970     0.3210 c          1 EFB       0.577100
     18 O30          4.6650     4.7460    -0.0750 o          1 EFB      -0.549100
     19 C29          3.8160     2.5290    -0.1200 c3         1 EFB      -0.160700
     20 C2D          2.5930     1.7270     0.2970 c3         1 EFB      -0.078100
     21 C28          5.2020     1.9570     0.2540 c3         1 EFB       0.195300
     22 O28          5.4130     1.9760     1.6520 oh         1 EFB      -0.657000
     23 C27          5.5870     0.5700    -0.2920 c3         1 EFB      -0.150700
     24 C2C          5.1680     0.3690    -1.7510 c3         1 EFB      -0.078100
     25 C26          5.1740    -0.6100     0.5660 c          1 EFB       0.581100
     26 O26          4.2130    -0.6000     1.2960 o          1 EFB      -0.506100
     27 C25          6.0730    -1.8750     0.5540 c3         1 EFB       0.091000
     28 C2B          6.6720    -1.9950     1.9560 c3         1 EFB      -0.127100
     29 O25          7.0890    -1.8020    -0.4170 oh         1 EFB      -0.639000
     30 C24          5.1650    -3.0710     0.2290 c3         1 EFB       0.193300
     31 O24          4.4790    -2.7430    -0.9590 oh         1 EFB      -0.658000
     32 C23          5.8700    -4.4420     0.1460 c3         1 EFB      -0.080700
     33 C2A          6.4590    -4.7640    -1.2240 c3         1 EFB      -0.076100
     34 C22          4.9010    -5.5520     0.6090 c3         1 EFB      -0.048200
     35 C21          3.6440    -5.6320    -0.1980 c2         1 EFB      -0.224200
     36 C20          2.4480    -5.2140     0.2370 ce         1 EFB      -0.187000
     37 C19          1.2360    -5.1790    -0.5640 ce         1 EFB      -0.199000
     38 C18          0.1090    -4.6100    -0.1250 c2         1 EFB      -0.192200
     39 C17         -1.1830    -4.4090    -0.8640 c3         1 EFB      -0.022500
     40 C1C         -1.1640    -4.8780    -2.3200 c3         1 EFB      -0.069400
     41 C1D         -0.3500    -4.0160    -3.2800 c3         1 EFB      -0.091100
     42 C16         -1.5870    -2.9370    -0.7010 c3         1 EFB      -0.075400
     43 C15         -2.9630    -2.5770    -1.2470 c3         1 EFB      -0.067400
     44 C13         -3.3730    -1.1830    -0.8000 c6         1 EFB       0.170300
     45 O14         -4.6750    -0.9230    -1.3220 os         1 EFB      -0.483000
     46 C8          -5.2790     0.2630    -0.8830 c6         1 EFB       0.309000
     47 O9          -5.5100     0.2640     0.4900 os         1 EFB      -0.471000
     48 C7          -6.6160     0.2330    -1.6530 c          1 EFB       0.577100
     49 O7          -6.7950     0.9040    -2.6400 o          1 EFB      -0.497100
     50 C6          -7.6330    -0.7300    -1.1060 c6         1 EFB      -0.179400
     51 C5          -7.7510    -0.6260     0.4220 c6         1 EFB      -0.079700
     52 C51         -8.4680     0.6580     0.8260 c3         1 EFB      -0.088100
     53 C4          -6.3480    -0.7640     1.0100 c6         1 EFB       0.179300
     54 C3          -6.2890    -0.6620     2.5230 c3         1 EFB      -0.104400
     55 C2          -4.8970    -0.8870     3.1150 c3         1 EFB       0.166300
     56 C1          -4.9390    -0.8090     4.6350 c3         1 EFB      -0.125100
     57 O2          -4.3130    -2.1000     2.6750 oh         1 EFB      -0.660000
     58 H1          -4.9430     2.8180     0.4700 hc         1 EFB       0.044033
     59 H2          -4.4940     3.6550    -1.0150 hc         1 EFB       0.044033
     60 H3          -6.0650     2.9010    -0.8850 hc         1 EFB       0.044033
     61 H4          -4.3780     1.5990    -2.2780 hc         1 EFB       0.087700
     62 H5          -3.0450     1.1500     0.4260 h1         1 EFB       0.080700
     63 H6          -1.4710    -0.2300    -0.7140 hc         1 EFB       0.062700
     64 H7          -3.0920     0.0460    -3.3080 hc         1 EFB       0.040033
     65 H8          -1.5360     0.8170    -3.0030 hc         1 EFB       0.040033
     66 H9          -1.6540    -0.9260    -3.0550 hc         1 EFB       0.040033
     67 H10         -0.2850     3.7760    -1.6720 ha         1 EFB       0.198000
     68 H11         -0.3480     5.0330     1.1210 ha         1 EFB       0.204000
     69 H12          0.7530     6.7770    -0.4070 hc         1 EFB       0.058700
     70 H13          1.0660     5.5200    -2.4420 hc         1 EFB       0.042367
     71 H14          2.6440     6.0160    -1.8530 hc         1 EFB       0.042367
     72 H15          2.1100     4.3450    -1.6660 hc         1 EFB       0.042367
     73 H16          3.0060     6.5030     0.5240 h1         1 EFB       0.052700
     74 H17          1.2750     7.3340     1.7600 ho         1 EFB       0.444000
     75 H18          1.9390     3.7930     1.3990 hc         1 EFB       0.082700
     76 H19          2.7500     4.8510     3.4500 hc         1 EFB       0.048033
     77 H20          3.8850     3.6190     2.9260 hc         1 EFB       0.048033
     78 H21          4.2610     5.3230     2.6600 hc         1 EFB       0.048033
     79 H22          3.8090     2.5870    -1.2150 hc         1 EFB       0.066700
     80 H23          1.6830     2.2220    -0.0490 hc         1 EFB       0.047367
     81 H24          2.6060     0.7380    -0.1540 hc         1 EFB       0.047367
     82 H25          2.5210     1.5970     1.3750 hc         1 EFB       0.047367
     83 H26          5.9140     2.6310    -0.2330 h1         1 EFB       0.039700
     84 H27          6.0030     2.7030     1.8630 ho         1 EFB       0.444000
     85 H28          6.6810     0.5750    -0.2880 hc         1 EFB       0.053700
     86 H29          5.5250     1.2050    -2.3550 hc         1 EFB       0.048033
     87 H30          5.5980    -0.5420    -2.1580 hc         1 EFB       0.048033
     88 H31          4.0870     0.3090    -1.8620 hc         1 EFB       0.048033
     89 H32          7.3620    -2.8380     2.0150 hc         1 EFB       0.052033
     90 H33          7.2340    -1.0930     2.2150 hc         1 EFB       0.052033
     91 H34          5.9020    -2.1300     2.7130 hc         1 EFB       0.052033
     92 H35          7.8510    -1.3460    -0.0440 ho         1 EFB       0.441000
     93 H36          4.4530    -3.1270     1.0640 h1         1 EFB       0.046700
     94 H37          3.7600    -3.3760    -1.0670 ho         1 EFB       0.453000
     95 H38          6.6930    -4.4500     0.8680 hc         1 EFB       0.051700
     96 H39          5.6990    -4.8020    -2.0050 hc         1 EFB       0.038367
     97 H40          7.2040    -4.0310    -1.5230 hc         1 EFB       0.038367
     98 H41          6.9420    -5.7420    -1.1960 hc         1 EFB       0.038367
     99 H42          5.4310    -6.5090     0.5650 hc         1 EFB       0.047200
    100 H43          4.6480    -5.3840     1.6600 hc         1 EFB       0.047200
    101 H44          3.7270    -6.0190    -1.2120 ha         1 EFB       0.173000
    102 H45          2.3650    -4.8280     1.2510 ha         1 EFB       0.170000
    103 H46          1.2930    -5.6010    -1.5630 ha         1 EFB       0.175000
    104 H47          0.1150    -4.2040     0.8860 ha         1 EFB       0.168000
    105 H48         -1.9430    -5.0060    -0.3400 hc         1 EFB       0.054700
    106 H49         -0.7980    -5.9080    -2.3500 hc         1 EFB       0.038700
    107 H50         -2.1950    -4.9290    -2.6810 hc         1 EFB       0.038700
    108 H51          0.6500    -3.8010    -2.9040 hc         1 EFB       0.033367
    109 H52         -0.2370    -4.5170    -4.2420 hc         1 EFB       0.033367
    110 H53         -0.8320    -3.0570    -3.4770 hc         1 EFB       0.033367
    111 H54         -1.5660    -2.6950     0.3680 hc         1 EFB       0.046200
    112 H55         -0.8170    -2.3100    -1.1580 hc         1 EFB       0.046200
    113 H56         -2.9930    -2.6580    -2.3370 hc         1 EFB       0.052200
    114 H57         -3.7010    -3.2870    -0.8610 hc         1 EFB       0.052200
    115 H58         -3.4180    -1.1990     0.2960 h1         1 EFB       0.062700
    116 H59         -8.5930    -0.5640    -1.5970 hc         1 EFB       0.075700
    117 H60         -7.2970    -1.7370    -1.3730 hc         1 EFB       0.075700
    118 H61         -8.3400    -1.4800     0.7690 hc         1 EFB       0.054700
    119 H62         -9.4320     0.7280     0.3200 hc         1 EFB       0.040033
    120 H63         -8.6630     0.6950     1.8970 hc         1 EFB       0.040033
    121 H64         -7.8960     1.5500     0.5630 hc         1 EFB       0.040033
    122 H65         -5.9560    -1.7450     0.7170 h1         1 EFB       0.053700
    123 H66         -6.6450     0.3190     2.8500 hc         1 EFB       0.053700
    124 H67         -6.9850    -1.3990     2.9400 hc         1 EFB       0.053700
    125 H68         -4.2320    -0.1030     2.7430 h1         1 EFB       0.089700
    126 H69         -5.6060    -1.5700     5.0480 hc         1 EFB       0.041700
    127 H70         -3.9460    -0.9570     5.0610 hc         1 EFB       0.041700
    128 H71         -5.3040     0.1650     4.9650 hc         1 EFB       0.041700
    129 H72         -4.8950    -2.8250     2.9290 ho         1 EFB       0.433000
@<TRIPOS>BOND
     1     1     2 1   
     2     1    58 1   
     3     1    59 1   
     4     1    60 1   
     5     2     3 1   
     6     2    46 1   
     7     2    61 1   
     8     3     4 1   
     9     3     6 1   
    10     3    62 1   
    11     4     5 1   
    12     4    44 1   
    13     4    63 1   
    14     5    64 1   
    15     5    65 1   
    16     5    66 1   
    17     6     7 1   
    18     7     8 2   
    19     7     9 1   
    20     9    10 2   
    21     9    67 1   
    22    10    11 1   
    23    10    68 1   
    24    11    12 1   
    25    11    13 1   
    26    11    69 1   
    27    12    70 1   
    28    12    71 1   
    29    12    72 1   
    30    13    14 1   
    31    13    15 1   
    32    13    73 1   
    33    14    74 1   
    34    15    16 1   
    35    15    17 1   
    36    15    75 1   
    37    16    76 1   
    38    16    77 1   
    39    16    78 1   
    40    17    18 2   
    41    17    19 1   
    42    19    20 1   
    43    19    21 1   
    44    19    79 1   
    45    20    80 1   
    46    20    81 1   
    47    20    82 1   
    48    21    22 1   
    49    21    23 1   
    50    21    83 1   
    51    22    84 1   
    52    23    24 1   
    53    23    25 1   
    54    23    85 1   
    55    24    86 1   
    56    24    87 1   
    57    24    88 1   
    58    25    26 2   
    59    25    27 1   
    60    27    28 1   
    61    27    29 1   
    62    27    30 1   
    63    28    89 1   
    64    28    90 1   
    65    28    91 1   
    66    29    92 1   
    67    30    31 1   
    68    30    32 1   
    69    30    93 1   
    70    31    94 1   
    71    32    33 1   
    72    32    34 1   
    73    32    95 1   
    74    33    96 1   
    75    33    97 1   
    76    33    98 1   
    77    34    35 1   
    78    34    99 1   
    79    34   100 1   
    80    35    36 2   
    81    35   101 1   
    82    36    37 1   
    83    36   102 1   
    84    37    38 2   
    85    37   103 1   
    86    38    39 1   
    87    38   104 1   
    88    39    40 1   
    89    39    42 1   
    90    39   105 1   
    91    40    41 1   
    92    40   106 1   
    93    40   107 1   
    94    41   108 1   
    95    41   109 1   
    96    41   110 1   
    97    42    43 1   
    98    42   111 1   
    99    42   112 1   
   100    43    44 1   
   101    43   113 1   
   102    43   114 1   
   103    44    45 1   
   104    44   115 1   
   105    45    46 1   
   106    46    47 1   
   107    46    48 1   
   108    47    53 1   
   109    48    49 2   
   110    48    50 1   
   111    50    51 1   
   112    50   116 1   
   113    50   117 1   
   114    51    52 1   
   115    51    53 1   
   116    51   118 1   
   117    52   119 1   
   118    52   120 1   
   119    52   121 1   
   120    53    54 1   
   121    53   122 1   
   122    54    55 1   
   123    54   123 1   
   124    54   124 1   
   125    55    56 1   
   126    55    57 1   
   127    55   125 1   
   128    56   126 1   
   129    56   127 1   
   130    56   128 1   
   131    57   129 1   
@<TRIPOS>SUBSTRUCTURE
     1 EFB         1 TEMP              0 ****  ****    0 ROOT
