@<TRIPOS>MOLECULE
EFC
   20    19     1     0     0
SMALL
No Charge or Current Charge


@<TRIPOS>ATOM
      1 N           13.1520    20.4530    16.3420 n8         1 EFC      -0.883800
      2 CA          14.2090    21.3760    15.7690 c3         1 EFC       0.022500
      3 CB          13.6010    22.2830    14.6700 c3         1 EFC      -0.008300
      4 SG          12.3350    23.4510    15.3400 ss         1 EFC      -0.083100
      5 SD          11.7300    24.5370    13.6530 ss         1 EFC      -0.271100
      6 C1          10.3370    23.5440    12.9380 c3         1 EFC      -0.040300
      7 C2           9.0410    23.6490    13.7700 c3         1 EFC       0.178900
      8 F2           9.1670    22.9850    14.9440 f          1 EFC      -0.235300
      9 C           15.0900    22.2330    16.7780 c          1 EFC       0.933600
     10 O           14.6240    22.5400    17.8730 o          1 EFC      -0.820800
     11 OXT         16.2580    22.4610    16.4790 o          1 EFC      -0.820800
     12 H           12.5070    21.0110    16.9120 hn         1 EFC       0.331300
     13 H2          12.5720    20.0820    15.5830 hn         1 EFC       0.331300
     14 HA          14.9280    20.7230    15.2550 h1         1 EFC       0.056700
     15 HB2         14.3980    22.8690    14.1970 h1         1 EFC       0.050200
     16 HB3         13.1300    21.6650    13.8950 h1         1 EFC       0.050200
     17 H11         10.1330    23.9250    11.9290 h1         1 EFC       0.069200
     18 H12         10.6430    22.4940    12.8480 h1         1 EFC       0.069200
     19 H21          8.8030    24.7000    13.9770 h1         1 EFC       0.034700
     20 H22          8.2080    23.2020    13.2130 h1         1 EFC       0.034700
@<TRIPOS>BOND
     1     1     2 1   
     2     1    12 1   
     3     1    13 1   
     4     2     3 1   
     5     2     9 1   
     6     2    14 1   
     7     3     4 1   
     8     3    15 1   
     9     3    16 1   
    10     4     5 1   
    11     5     6 1   
    12     6     7 1   
    13     6    17 1   
    14     6    18 1   
    15     7     8 1   
    16     7    19 1   
    17     7    20 1   
    18     9    10 1   
    19     9    11 1   
@<TRIPOS>SUBSTRUCTURE
     1 EFC         1 TEMP              0 ****  ****    0 ROOT
