@<TRIPOS>MOLECULE
EFC
   20    19     1     0     0
SMALL
bcc


@<TRIPOS>ATOM
      1 N           13.1340    20.4860    16.1440 n8         1 EFC      -0.883800
      2 CA          14.1770    21.3630    15.6490 c3         1 EFC       0.022500
      3 CB          13.7110    22.3600    14.5800 c3         1 EFC      -0.008300
      4 SG          12.5090    23.5370    15.2970 ss         1 EFC      -0.083100
      5 SD          11.7680    24.4520    13.6130 ss         1 EFC      -0.271100
      6 C1          10.3820    23.3880    13.1090 c3         1 EFC      -0.040300
      7 C2           9.0970    23.6800    13.8380 c3         1 EFC       0.178900
      8 F2           9.2440    23.4590    15.2010 f          1 EFC      -0.235300
      9 C           14.8550    22.1510    16.7990 c          1 EFC       0.933600
     10 O           14.1590    22.3650    17.8120 o          1 EFC      -0.820800
     11 OXT         16.0140    22.5440    16.5810 o          1 EFC      -0.820800
     12 H           12.5970    20.9810    16.8440 hn         1 EFC       0.331300
     13 H2          12.4940    20.2370    15.4000 hn         1 EFC       0.331300
     14 HA          14.9450    20.7560    15.1570 h1         1 EFC       0.056700
     15 HB2         14.5570    22.9160    14.1750 h1         1 EFC       0.050200
     16 HB3         13.2200    21.8310    13.7610 h1         1 EFC       0.050200
     17 H11         10.2270    23.5900    12.0460 h1         1 EFC       0.069200
     18 H12         10.6800    22.3430    13.2010 h1         1 EFC       0.069200
     19 H21          8.7940    24.7180    13.6910 h1         1 EFC       0.034700
     20 H22          8.3030    23.0270    13.4690 h1         1 EFC       0.034700
@<TRIPOS>BOND
     1     1     2 1   
     2     1    12 1   
     3     1    13 1   
     4     2     3 1   
     5     2     9 1   
     6     2    14 1   
     7     3     4 1   
     8     3    15 1   
     9     3    16 1   
    10     4     5 1   
    11     5     6 1   
    12     6     7 1   
    13     6    17 1   
    14     6    18 1   
    15     7     8 1   
    16     7    19 1   
    17     7    20 1   
    18     9    10 1   
    19     9    11 1   
@<TRIPOS>SUBSTRUCTURE
     1 EFC         1 TEMP              0 ****  ****    0 ROOT
