@<TRIPOS>MOLECULE
EFD
   77    81     1     0     0
SMALL
No Charge or Current Charge


@<TRIPOS>ATOM
      1 C10         -1.4370     3.6720     1.6210 c6         1 EFD       0.101000
      2 C11         -1.3250     1.2130     1.4000 c6         1 EFD       0.192000
      3 C01         -3.2670     4.5450    -1.0630 ca         1 EFD      -0.021300
      4 C02         -3.5630     5.8140    -1.5990 ca         1 EFD      -0.138000
      5 C03         -2.6030     6.5240    -2.3380 ca         1 EFD      -0.072000
      6 C04         -1.3360     5.9620    -2.5530 ca         1 EFD      -0.164000
      7 C05         -1.0290     4.7000    -2.0230 ca         1 EFD       0.207000
      8 C06         -1.9780     3.9890    -1.2650 ca         1 EFD      -0.188600
      9 C07         -1.5930     2.6490    -0.7080 c          1 EFD       0.637700
     10 O08         -1.3620     1.7180    -1.4680 o          1 EFD      -0.550100
     11 N09         -1.5920     2.5030     0.7040 n          1 EFD      -0.396800
     12 C12         -0.0080     3.7350     2.2220 c6         1 EFD      -0.103400
     13 C13          0.4010     2.3900     2.8830 c6         1 EFD      -0.066400
     14 C14          0.1460     1.1960     1.9190 c6         1 EFD      -0.160700
     15 C15         -1.9220    -0.0480     0.7330 ca         1 EFD      -0.127300
     16 C16         -1.1720    -1.2030     0.4190 ca         1 EFD      -0.046500
     17 C17         -1.7910    -2.3160    -0.1770 ca         1 EFD      -0.183500
     18 C18         -3.1650    -2.3040    -0.4520 ca         1 EFD       0.329000
     19 C19         -3.9200    -1.1650    -0.1370 ca         1 EFD      -0.183500
     20 C20         -3.3060    -0.0500     0.4570 ca         1 EFD      -0.046500
     21 F22          0.2060     4.1900    -2.2260 f          1 EFD      -0.161000
     22 C23          1.2550     1.0580     0.8450 c          1 EFD       0.615100
     23 N24         -3.7540    -3.4220    -1.0460 nu         1 EFD      -0.942200
     24 C25         -4.7940    -4.0190    -0.1700 c5         1 EFD       0.213500
     25 C26         -4.0360    -4.8660     0.8830 c5         1 EFD      -0.098900
     26 C27         -5.1530    -5.8490     1.3430 c5         1 EFD      -0.078400
     27 C28         -6.0930    -6.0040     0.0980 c5         1 EFD      -0.078400
     28 C29         -5.4180    -5.1530    -1.0150 c5         1 EFD      -0.098900
     29 O30          1.4030     1.8880    -0.0430 o          1 EFD      -0.547100
     30 N31          2.0900    -0.0420     1.0060 ns         1 EFD      -0.156000
     31 C32          3.1740    -0.5390     0.2320 ca         1 EFD      -0.024000
     32 C33          3.9490    -1.5730     0.7850 ca         1 EFD      -0.128000
     33 C34          5.0450    -2.1390     0.0870 ca         1 EFD      -0.167300
     34 C35          5.3550    -1.6420    -1.2090 ca         1 EFD      -0.049300
     35 C36          4.5690    -0.6120    -1.7630 ca         1 EFD      -0.096000
     36 C37          3.4890    -0.0650    -1.0560 ca         1 EFD      -0.096000
     37 C38          6.5170    -2.1890    -2.0380 c3         1 EFD      -0.055800
     38 C39          5.8700    -3.2700     0.7390 c3         1 EFD       0.355300
     39 F40          7.1670    -2.9220     0.8970 f          1 EFD      -0.116333
     40 F41          5.4200    -3.6150     1.9680 f          1 EFD      -0.116333
     41 F42          5.8480    -4.4020    -0.0010 f          1 EFD      -0.116333
     42 H1          -1.6520     4.6200     1.1110 h1         1 EFD       0.052700
     43 H2          -2.1690     3.5790     2.4370 h1         1 EFD       0.052700
     44 H3          -1.9200     1.2740     2.3240 h1         1 EFD       0.046700
     45 H4          -4.5480     6.2520    -1.4510 ha         1 EFD       0.117000
     46 H5          -2.8440     7.5030    -2.7480 ha         1 EFD       0.117000
     47 H6          -0.5880     6.5040    -3.1270 ha         1 EFD       0.134000
     48 H7           0.7060     3.9970     1.4300 hc         1 EFD       0.061700
     49 H8           0.0460     4.5460     2.9610 hc         1 EFD       0.061700
     50 H9           1.4560     2.4210     3.1920 hc         1 EFD       0.046200
     51 H10         -0.1860     2.2500     3.8020 hc         1 EFD       0.046200
     52 H11          0.2320     0.2980     2.5470 hc         1 EFD       0.059700
     53 H12         -0.1140    -1.2670     0.6350 ha         1 EFD       0.104500
     54 H13         -1.1980    -3.1950    -0.4130 ha         1 EFD       0.111000
     55 H14         -4.9830    -1.1370    -0.3570 ha         1 EFD       0.111000
     56 H15         -3.9100     0.8190     0.7060 ha         1 EFD       0.104500
     57 H16         -4.1760     3.7780     0.7640 hc         1 EFD       0.049367
     58 H17         -5.3450     4.2320    -0.4780 hc         1 EFD       0.049367
     59 H18         -4.4190     2.7440    -0.6590 hc         1 EFD       0.049367
     60 H19         -3.0760    -4.0560    -1.4660 hn         1 EFD       0.464000
     61 H20         -5.5390    -3.3270     0.2520 h1         1 EFD       0.065700
     62 H21         -3.1890    -5.4160     0.4530 hc         1 EFD       0.048700
     63 H22         -3.6460    -4.2620     1.7100 hc         1 EFD       0.048700
     64 H23         -4.7350    -6.8100     1.6660 hc         1 EFD       0.043950
     65 H24         -5.7080    -5.4430     2.1970 hc         1 EFD       0.043950
     66 H25         -6.2080    -7.0510    -0.2050 hc         1 EFD       0.043950
     67 H26         -7.0970    -5.6270     0.3250 hc         1 EFD       0.043950
     68 H27         -6.1390    -4.7800    -1.7520 hc         1 EFD       0.048700
     69 H28         -4.6680    -5.7430    -1.5560 hc         1 EFD       0.048700
     70 H29          1.8810    -0.6050     1.8210 hn         1 EFD       0.148000
     71 H30          3.6900    -1.9350     1.7780 ha         1 EFD       0.123000
     72 H31          4.7940    -0.2300    -2.7560 ha         1 EFD       0.121000
     73 H32          2.9050     0.7170    -1.5320 ha         1 EFD       0.158000
     74 H33          6.3860    -3.2540    -2.2580 hc         1 EFD       0.052367
     75 H34          6.6050    -1.6740    -3.0020 hc         1 EFD       0.052367
     76 H35          7.4750    -2.0600    -1.5220 hc         1 EFD       0.052367
     77 C21         -4.3580     3.7840    -0.3160 c3         1 EFD      -0.056800
@<TRIPOS>BOND
     1     1    11 1   
     2     1    12 1   
     3     1    42 1   
     4     1    43 1   
     5     2    11 1   
     6     2    14 1   
     7     2    15 1   
     8     2    44 1   
     9     3     4 ar  
    10     3     8 ar  
    11     3    77 1   
    12     4     5 ar  
    13     4    45 1   
    14     5     6 ar  
    15     5    46 1   
    16     6     7 ar  
    17     6    47 1   
    18     7     8 ar  
    19     7    21 1   
    20     8     9 1   
    21     9    10 2   
    22     9    11 1   
    23    12    13 1   
    24    12    48 1   
    25    12    49 1   
    26    13    14 1   
    27    13    50 1   
    28    13    51 1   
    29    14    22 1   
    30    14    52 1   
    31    15    16 ar  
    32    15    20 ar  
    33    16    17 ar  
    34    16    53 1   
    35    17    18 ar  
    36    17    54 1   
    37    18    19 ar  
    38    18    23 1   
    39    19    20 ar  
    40    19    55 1   
    41    20    56 1   
    42    22    29 2   
    43    22    30 1   
    44    23    24 1   
    45    23    60 1   
    46    24    25 1   
    47    24    28 1   
    48    24    61 1   
    49    25    26 1   
    50    25    62 1   
    51    25    63 1   
    52    26    27 1   
    53    26    64 1   
    54    26    65 1   
    55    27    28 1   
    56    27    66 1   
    57    27    67 1   
    58    28    68 1   
    59    28    69 1   
    60    30    31 1   
    61    30    70 1   
    62    31    32 ar  
    63    31    36 ar  
    64    32    33 ar  
    65    32    71 1   
    66    33    34 ar  
    67    33    38 1   
    68    34    35 ar  
    69    34    37 1   
    70    35    36 ar  
    71    35    72 1   
    72    36    73 1   
    73    37    74 1   
    74    37    75 1   
    75    37    76 1   
    76    38    39 1   
    77    38    40 1   
    78    38    41 1   
    79    57    77 1   
    80    58    77 1   
    81    59    77 1   
@<TRIPOS>SUBSTRUCTURE
     1 EFD         1 TEMP              0 ****  ****    0 ROOT
