@<TRIPOS>MOLECULE
EFD
   77    81     1     0     0
SMALL
abcg2


@<TRIPOS>ATOM
      1 C10         -1.1820     3.4050     1.6210 c6         1 EFD       0.101000
      2 C11         -1.0750     0.9960     1.5190 c6         1 EFD       0.192000
      3 C01         -3.3060     4.0300    -1.0740 ca         1 EFD      -0.021300
      4 C02         -3.6590     5.2130    -1.7180 ca         1 EFD      -0.138000
      5 C03         -2.7110     5.9790    -2.3810 ca         1 EFD      -0.072000
      6 C04         -1.3850     5.5770    -2.4180 ca         1 EFD      -0.164000
      7 C05         -1.0490     4.3980    -1.7840 ca         1 EFD       0.207000
      8 C06         -1.9690     3.6190    -1.1070 ca         1 EFD      -0.188600
      9 C07         -1.5610     2.2820    -0.5420 c          1 EFD       0.637700
     10 O08         -1.4860     1.3300    -1.2960 o          1 EFD      -0.550100
     11 N09         -1.3930     2.2260     0.7940 n          1 EFD      -0.396800
     12 C12          0.2770     3.4950     2.0490 c6         1 EFD      -0.103400
     13 C13          0.7500     2.2030     2.7080 c6         1 EFD      -0.066400
     14 C14          0.4160     0.9390     1.8860 c6         1 EFD      -0.160700
     15 C15         -1.7140    -0.2500     0.9580 ca         1 EFD      -0.127300
     16 C16         -1.0150    -1.3680     0.5240 ca         1 EFD      -0.046500
     17 C17         -1.6690    -2.5060     0.0820 ca         1 EFD      -0.183500
     18 C18         -3.0690    -2.5740     0.0490 ca         1 EFD       0.329000
     19 C19         -3.7770    -1.4530     0.5060 ca         1 EFD      -0.183500
     20 C20         -3.1030    -0.3300     0.9520 ca         1 EFD      -0.046500
     21 F22          0.2310     3.9950    -1.8060 f          1 EFD      -0.161000
     22 C23          1.3870     0.8360     0.7260 c          1 EFD       0.615100
     23 N24         -3.6870    -3.6970    -0.4460 nu         1 EFD      -0.942200
     24 C25         -5.0830    -3.9850    -0.2340 c5         1 EFD       0.213500
     25 C26         -5.5100    -4.3550     1.1900 c5         1 EFD      -0.098900
     26 C27         -6.9120    -4.9240     0.9850 c5         1 EFD      -0.078400
     27 C28         -6.8610    -5.6400    -0.3850 c5         1 EFD      -0.078400
     28 C29         -5.5440    -5.1970    -1.0460 c5         1 EFD      -0.098900
     29 O30          1.3610     1.5830    -0.2310 o          1 EFD      -0.547100
     30 N31          2.3400    -0.1250     0.8990 ns         1 EFD      -0.156000
     31 C32          3.4530    -0.4080     0.1030 ca         1 EFD      -0.024000
     32 C33          4.4010    -1.2800     0.6390 ca         1 EFD      -0.128000
     33 C34          5.5370    -1.6330    -0.0710 ca         1 EFD      -0.167300
     34 C35          5.7740    -1.1230    -1.3560 ca         1 EFD      -0.049300
     35 C36          4.8110    -0.2610    -1.8680 ca         1 EFD      -0.096000
     36 C37          3.6670     0.1010    -1.1740 ca         1 EFD      -0.096000
     37 C38          6.9880    -1.4400    -2.1830 c3         1 EFD      -0.055800
     38 C39          6.5110    -2.5830     0.5620 c3         1 EFD       0.355300
     39 F40          7.7420    -2.0590     0.6520 f          1 EFD      -0.116333
     40 F41          6.1570    -2.9370     1.8020 f          1 EFD      -0.116333
     41 F42          6.6290    -3.7220    -0.1370 f          1 EFD      -0.116333
     42 H1          -1.4800     4.3030     1.0870 h1         1 EFD       0.052700
     43 H2          -1.8330     3.3300     2.4980 h1         1 EFD       0.052700
     44 H3          -1.5590     1.1420     2.4930 h1         1 EFD       0.046700
     45 H4          -4.6930     5.5350    -1.7020 ha         1 EFD       0.117000
     46 H5          -3.0050     6.8970    -2.8720 ha         1 EFD       0.117000
     47 H6          -0.6300     6.1600    -2.9280 ha         1 EFD       0.134000
     48 H7           0.8890     3.7320     1.1770 hc         1 EFD       0.061700
     49 H8           0.3900     4.3220     2.7540 hc         1 EFD       0.061700
     50 H9           1.8210     2.2490     2.9140 hc         1 EFD       0.046200
     51 H10          0.2570     2.0920     3.6790 hc         1 EFD       0.046200
     52 H11          0.5440     0.0770     2.5460 hc         1 EFD       0.059700
     53 H12          0.0670    -1.3820     0.5240 ha         1 EFD       0.104500
     54 H13         -1.0880    -3.3590    -0.2490 ha         1 EFD       0.111000
     55 H14         -4.8590    -1.4520     0.5290 ha         1 EFD       0.111000
     56 H15         -3.6860     0.5100     1.3140 ha         1 EFD       0.104500
     57 H16         -4.2120     3.3080     0.7400 hc         1 EFD       0.049367
     58 H17         -5.3430     3.5640    -0.5840 hc         1 EFD       0.049367
     59 H18         -4.2750     2.1630    -0.5900 hc         1 EFD       0.049367
     60 H19         -3.0960    -4.5120    -0.4980 hn         1 EFD       0.464000
     61 H20         -5.6660    -3.1150    -0.5570 h1         1 EFD       0.065700
     62 H21         -4.8320    -5.1240     1.5740 hc         1 EFD       0.048700
     63 H22         -5.4830    -3.5150     1.8860 hc         1 EFD       0.048700
     64 H23         -7.2160    -5.5880     1.7940 hc         1 EFD       0.043950
     65 H24         -7.6380    -4.1090     0.9550 hc         1 EFD       0.043950
     66 H25         -6.8900    -6.7240    -0.2690 hc         1 EFD       0.043950
     67 H26         -7.7220    -5.3710    -0.9970 hc         1 EFD       0.043950
     68 H27         -5.6500    -4.9710    -2.1070 hc         1 EFD       0.048700
     69 H28         -4.7920    -5.9870    -0.9580 hc         1 EFD       0.048700
     70 H29          2.2830    -0.6640     1.7500 hn         1 EFD       0.148000
     71 H30          4.2300    -1.6770     1.6310 ha         1 EFD       0.123000
     72 H31          4.9580     0.1470    -2.8610 ha         1 EFD       0.121000
     73 H32          2.9600     0.7680    -1.6370 ha         1 EFD       0.158000
     74 H33          7.1390    -2.5110    -2.3160 hc         1 EFD       0.052367
     75 H34          6.8860    -1.0040    -3.1750 hc         1 EFD       0.052367
     76 H35          7.8980    -1.0330    -1.7440 hc         1 EFD       0.052367
     77 C21         -4.3380     3.2230    -0.3420 c3         1 EFD      -0.056800
@<TRIPOS>BOND
     1     1    11 1   
     2     1    12 1   
     3     1    42 1   
     4     1    43 1   
     5     2    11 1   
     6     2    14 1   
     7     2    15 1   
     8     2    44 1   
     9     3     4 ar  
    10     3     8 ar  
    11     3    77 1   
    12     4     5 ar  
    13     4    45 1   
    14     5     6 ar  
    15     5    46 1   
    16     6     7 ar  
    17     6    47 1   
    18     7     8 ar  
    19     7    21 1   
    20     8     9 1   
    21     9    10 2   
    22     9    11 1   
    23    12    13 1   
    24    12    48 1   
    25    12    49 1   
    26    13    14 1   
    27    13    50 1   
    28    13    51 1   
    29    14    22 1   
    30    14    52 1   
    31    15    16 ar  
    32    15    20 ar  
    33    16    17 ar  
    34    16    53 1   
    35    17    18 ar  
    36    17    54 1   
    37    18    19 ar  
    38    18    23 1   
    39    19    20 ar  
    40    19    55 1   
    41    20    56 1   
    42    22    29 2   
    43    22    30 1   
    44    23    24 1   
    45    23    60 1   
    46    24    25 1   
    47    24    28 1   
    48    24    61 1   
    49    25    26 1   
    50    25    62 1   
    51    25    63 1   
    52    26    27 1   
    53    26    64 1   
    54    26    65 1   
    55    27    28 1   
    56    27    66 1   
    57    27    67 1   
    58    28    68 1   
    59    28    69 1   
    60    30    31 1   
    61    30    70 1   
    62    31    32 ar  
    63    31    36 ar  
    64    32    33 ar  
    65    32    71 1   
    66    33    34 ar  
    67    33    38 1   
    68    34    35 ar  
    69    34    37 1   
    70    35    36 ar  
    71    35    72 1   
    72    36    73 1   
    73    37    74 1   
    74    37    75 1   
    75    37    76 1   
    76    38    39 1   
    77    38    40 1   
    78    38    41 1   
    79    57    77 1   
    80    58    77 1   
    81    59    77 1   
@<TRIPOS>SUBSTRUCTURE
     1 EFD         1 TEMP              0 ****  ****    0 ROOT
