@<TRIPOS>MOLECULE
EFI
   40    42     1     0     0
SMALL
abcg2


@<TRIPOS>ATOM
      1 N1          28.3390     6.2280    20.9910 n3         1 EFI      -0.661200
      2 C4          27.6250    11.8130    19.8680 ca         1 EFI       0.309000
      3 C5          26.4260    12.4820    20.1430 ca         1 EFI      -0.155000
      4 C6          26.3110    13.8430    19.9100 ca         1 EFI      -0.075000
      5 C7          27.3700    14.5850    19.4120 ca         1 EFI      -0.112000
      6 C8          28.5690    13.9260    19.1470 ca         1 EFI      -0.149300
      7 C10         28.6990    12.5670    19.3660 ca         1 EFI      -0.141000
      8 C13         26.5670     7.6680    23.0600 c6         1 EFI      -0.076400
      9 C15         26.9410     5.9060    21.2910 c5         1 EFI       0.246800
     10 N           30.1320     4.5360    20.9540 n1         1 EFI      -0.515000
     11 C           29.2900     5.3350    20.9690 c1         1 EFI       0.455800
     12 C1          28.5610     7.6450    20.7060 c5         1 EFI       0.245800
     13 C11         27.1730    10.0090    22.4070 c6         1 EFI      -0.109400
     14 C12         26.2870     9.1460    23.2960 c6         1 EFI      -0.070400
     15 C14         26.3560     7.2780    21.5990 c5         1 EFI      -0.073700
     16 C2          27.1300     8.1880    20.6330 c5         1 EFI      -0.081700
     17 C3          26.9530     9.6760    20.9310 c6         1 EFI       0.231500
     18 C9          29.7170    14.7210    18.6060 c3         1 EFI       0.353300
     19 F           30.8620    14.0310    18.5730 f          1 EFI      -0.114333
     20 F1          29.9500    15.8210    19.3360 f          1 EFI      -0.114333
     21 F2          29.4830    15.1410    17.3530 f          1 EFI      -0.114333
     22 N2          27.7820    10.4590    20.0340 nu         1 EFI      -0.946200
     23 H1          25.5730    11.9470    20.5390 ha         1 EFI       0.118000
     24 H2          25.3720    14.3350    20.1280 ha         1 EFI       0.117000
     25 H3          27.2570    15.6470    19.2430 ha         1 EFI       0.131000
     26 H4          29.6340    12.0610    19.1590 ha         1 EFI       0.127000
     27 H5          25.9240     7.0490    23.6900 hc         1 EFI       0.050200
     28 H6          27.5960     7.4490    23.3670 hc         1 EFI       0.050200
     29 H7          26.4580     5.4440    20.4260 h1         1 EFI       0.054200
     30 H8          26.8740     5.2180    22.1340 h1         1 EFI       0.054200
     31 H11         29.1510     8.1060    21.5030 h1         1 EFI       0.049700
     32 H12         29.1020     7.7700    19.7670 h1         1 EFI       0.049700
     33 H13         28.2250     9.8610    22.6710 hc         1 EFI       0.051200
     34 H14         26.9600    11.0680    22.5720 hc         1 EFI       0.051200
     35 H15         25.2340     9.3610    23.0870 hc         1 EFI       0.046200
     36 H16         26.4520     9.3960    24.3460 hc         1 EFI       0.046200
     37 H17         25.2880     7.3000    21.3680 hc         1 EFI       0.067700
     38 H18         26.7590     8.0060    19.6190 hc         1 EFI       0.072700
     39 H19         25.9070     9.8940    20.6950 h1         1 EFI       0.064700
     40 H20         28.7430    10.1540    19.9830 hn         1 EFI       0.465000
@<TRIPOS>BOND
     1     1     9 1   
     2     1    11 1   
     3     1    12 1   
     4     2     3 ar  
     5     2     7 ar  
     6     2    22 1   
     7     3     4 ar  
     8     3    23 1   
     9     4     5 ar  
    10     4    24 1   
    11     5     6 ar  
    12     5    25 1   
    13     6     7 ar  
    14     6    18 1   
    15     7    26 1   
    16     8    14 1   
    17     8    15 1   
    18     8    27 1   
    19     8    28 1   
    20     9    15 1   
    21     9    29 1   
    22     9    30 1   
    23    10    11 3   
    24    12    16 1   
    25    12    31 1   
    26    12    32 1   
    27    13    14 1   
    28    13    17 1   
    29    13    33 1   
    30    13    34 1   
    31    14    35 1   
    32    14    36 1   
    33    15    16 1   
    34    15    37 1   
    35    16    17 1   
    36    16    38 1   
    37    17    22 1   
    38    17    39 1   
    39    18    19 1   
    40    18    20 1   
    41    18    21 1   
    42    22    40 1   
@<TRIPOS>SUBSTRUCTURE
     1 EFI         1 TEMP              0 ****  ****    0 ROOT
