@<TRIPOS>MOLECULE
EFI
   40    42     1     0     0
SMALL
No Charge or Current Charge


@<TRIPOS>ATOM
      1 N1          28.4220     6.2050    21.1520 n3         1 EFI      -0.661200
      2 C4          27.4960    11.8230    19.7550 ca         1 EFI       0.309000
      3 C5          26.2800    12.5030    19.9400 ca         1 EFI      -0.155000
      4 C6          26.2170    13.8970    19.7740 ca         1 EFI      -0.075000
      5 C7          27.3690    14.6180    19.4210 ca         1 EFI      -0.112000
      6 C8          28.6000    13.9530    19.2330 ca         1 EFI      -0.149300
      7 C10         28.6450    12.5490    19.3950 ca         1 EFI      -0.141000
      8 C13         26.7030     7.6940    23.1850 c6         1 EFI      -0.076400
      9 C15         26.9870     5.8690    21.3180 c5         1 EFI       0.246800
     10 N           30.1730     4.5020    20.6890 n1         1 EFI      -0.515000
     11 C           29.3610     5.2960    20.9310 c1         1 EFI       0.455800
     12 C1          28.5120     7.6030    20.6390 c5         1 EFI       0.245800
     13 C11         27.1760    10.0590    22.3330 c6         1 EFI      -0.109400
     14 C12         26.4030     9.2020    23.3700 c6         1 EFI      -0.070400
     15 C14         26.3870     7.2360    21.7280 c5         1 EFI      -0.073700
     16 C2          27.0410     8.1270    20.6390 c5         1 EFI      -0.081700
     17 C3          26.8150     9.6470    20.8800 c6         1 EFI       0.231500
     18 C9          29.8610    14.7310    18.8350 c3         1 EFI       0.353300
     19 F           30.9870    14.1790    19.3440 f          1 EFI      -0.114333
     20 F1          29.8350    16.0140    19.2640 f          1 EFI      -0.114333
     21 F2          30.0120    14.7680    17.4920 f          1 EFI      -0.114333
     22 N2          27.5910    10.4360    19.9050 nu         1 EFI      -0.946200
     23 H1          25.3780    11.9600    20.2040 ha         1 EFI       0.118000
     24 H2          25.2720    14.4180    19.9150 ha         1 EFI       0.117000
     25 H3          27.2980    15.6960    19.2900 ha         1 EFI       0.131000
     26 H4          29.5790    12.0160    19.2420 ha         1 EFI       0.127000
     27 H5          26.1110     7.1030    23.8970 hc         1 EFI       0.050200
     28 H6          27.7560     7.5050    23.4330 hc         1 EFI       0.050200
     29 H7          26.5510     5.5030    20.3770 h1         1 EFI       0.054200
     30 H8          26.8240     5.1030    22.0880 h1         1 EFI       0.054200
     31 H11         29.1630     8.2020    21.2890 h1         1 EFI       0.049700
     32 H12         28.9330     7.6410    19.6250 h1         1 EFI       0.049700
     33 H13         28.2570     9.9620    22.5030 hc         1 EFI       0.051200
     34 H14         26.9350    11.1190    22.4920 hc         1 EFI       0.051200
     35 H15         25.3230     9.3820    23.2700 hc         1 EFI       0.046200
     36 H16         26.6770     9.5120    24.3880 hc         1 EFI       0.046200
     37 H17         25.2940     7.2330    21.6400 hc         1 EFI       0.067700
     38 H18         26.5840     7.9220    19.6630 hc         1 EFI       0.072700
     39 H19         25.7390     9.8340    20.7380 h1         1 EFI       0.064700
     40 H20         28.4850    10.0490    19.6060 hn         1 EFI       0.465000
@<TRIPOS>BOND
     1     1     9 1   
     2     1    11 1   
     3     1    12 1   
     4     2     3 ar  
     5     2     7 ar  
     6     2    22 1   
     7     3     4 ar  
     8     3    23 1   
     9     4     5 ar  
    10     4    24 1   
    11     5     6 ar  
    12     5    25 1   
    13     6     7 ar  
    14     6    18 1   
    15     7    26 1   
    16     8    14 1   
    17     8    15 1   
    18     8    27 1   
    19     8    28 1   
    20     9    15 1   
    21     9    29 1   
    22     9    30 1   
    23    10    11 3   
    24    12    16 1   
    25    12    31 1   
    26    12    32 1   
    27    13    14 1   
    28    13    17 1   
    29    13    33 1   
    30    13    34 1   
    31    14    35 1   
    32    14    36 1   
    33    15    16 1   
    34    15    37 1   
    35    16    17 1   
    36    16    38 1   
    37    17    22 1   
    38    17    39 1   
    39    18    19 1   
    40    18    20 1   
    41    18    21 1   
    42    22    40 1   
@<TRIPOS>SUBSTRUCTURE
     1 EFI         1 TEMP              0 ****  ****    0 ROOT
