@<TRIPOS>MOLECULE
EFJ
   37    40     1     0     0
SMALL
No Charge or Current Charge


@<TRIPOS>ATOM
      1 C1          -3.9890   -27.9590    30.7410 c3         1 EFJ      -0.151400
      2 C2          -4.2030   -27.8270    32.2210 cc         1 EFJ       0.403300
      3 C3          -4.6020   -29.0060    32.9270 cc         1 EFJ      -0.216000
      4 C4          -4.8320   -29.0200    34.2880 cd         1 EFJ      -0.013300
      5 C5          -5.2540   -30.2600    35.0380 c3         1 EFJ      -0.064800
      6 N1          -4.6340   -27.7620    34.8990 na         1 EFJ      -0.058400
      7 C6          -4.7670   -27.4030    36.2210 cc         1 EFJ      -0.142400
      8 Br1         -5.2590   -28.4420    37.7300 br         1 EFJ       0.011300
      9 C7          -4.4430   -26.0540    36.2140 cd         1 EFJ       0.106400
     10 C8          -4.4130   -25.1330    37.4060 c3         1 EFJ       0.106800
     11 S1          -2.9060   -25.3610    38.4530 ss         1 EFJ      -0.187200
     12 C9          -3.1400   -24.2110    39.7660 cc         1 EFJ       0.413700
     13 N2          -4.2450   -23.3740    39.8620 na         1 EFJ      -0.316600
     14 C10         -4.0510   -22.6530    41.0010 ca         1 EFJ      -0.075200
     15 C11         -4.8490   -21.6630    41.5850 ca         1 EFJ      -0.117000
     16 C12         -4.3890   -21.0800    42.7850 ca         1 EFJ      -0.091000
     17 C13         -3.1620   -21.4970    43.3560 ca         1 EFJ      -0.136000
     18 C14         -2.3850   -22.5010    42.7350 ca         1 EFJ      -0.046000
     19 C15         -2.8610   -23.0680    41.5430 ca         1 EFJ       0.067400
     20 N3          -2.2630   -24.0630    40.7690 nd         1 EFJ      -0.542100
     21 N4          -4.1170   -25.5750    34.9420 nd         1 EFJ      -0.257600
     22 C16         -4.2480   -26.6790    34.1420 cd         1 EFJ       0.413500
     23 N5          -4.0130   -26.6430    32.7770 nd         1 EFJ      -0.630000
     24 H1          -3.6850   -27.0080    30.2880 hc         1 EFJ       0.061367
     25 H2          -3.2050   -28.6960    30.5290 hc         1 EFJ       0.061367
     26 H3          -4.9090   -28.2880    30.2450 hc         1 EFJ       0.061367
     27 H4          -4.7240   -29.9160    32.3500 ha         1 EFJ       0.139000
     28 H5          -4.5170   -30.5340    35.8010 hc         1 EFJ       0.068033
     29 H6          -6.2290   -30.1230    35.5200 hc         1 EFJ       0.068033
     30 H7          -5.3490   -31.1190    34.3630 hc         1 EFJ       0.068033
     31 H8          -4.4490   -24.0930    37.0580 h1         1 EFJ       0.083200
     32 H9          -5.3040   -25.3220    38.0180 h1         1 EFJ       0.083200
     33 H10         -5.0250   -23.3130    39.2240 hn         1 EFJ       0.359000
     34 H11         -5.7890   -21.3530    41.1340 ha         1 EFJ       0.117000
     35 H12         -4.9790   -20.3060    43.2720 ha         1 EFJ       0.112000
     36 H13         -2.8150   -21.0420    44.2810 ha         1 EFJ       0.114000
     37 H14         -1.4430   -22.8270    43.1670 ha         1 EFJ       0.129000
@<TRIPOS>BOND
     1     1     2 1   
     2     1    24 1   
     3     1    25 1   
     4     1    26 1   
     5     2     3 1   
     6     2    23 2   
     7     3     4 2   
     8     3    27 1   
     9     4     5 1   
    10     4     6 1   
    11     5    28 1   
    12     5    29 1   
    13     5    30 1   
    14     6     7 1   
    15     6    22 1   
    16     7     8 1   
    17     7     9 2   
    18     9    10 1   
    19     9    21 1   
    20    10    11 1   
    21    10    31 1   
    22    10    32 1   
    23    11    12 1   
    24    12    13 1   
    25    12    20 2   
    26    13    14 1   
    27    13    33 1   
    28    14    15 ar  
    29    14    19 ar  
    30    15    16 ar  
    31    15    34 1   
    32    16    17 ar  
    33    16    35 1   
    34    17    18 ar  
    35    17    36 1   
    36    18    19 ar  
    37    18    37 1   
    38    19    20 1   
    39    21    22 2   
    40    22    23 1   
@<TRIPOS>SUBSTRUCTURE
     1 EFJ         1 TEMP              0 ****  ****    0 ROOT
