@<TRIPOS>MOLECULE
EFJ
   37    40     1     0     0
SMALL
bcc


@<TRIPOS>ATOM
      1 C1          -4.0050   -28.1160    30.8350 c3         1 EFJ      -0.151400
      2 C2          -4.2390   -27.9560    32.3000 cc         1 EFJ       0.468600
      3 C3          -4.5120   -29.1010    33.0930 cc         1 EFJ      -0.299300
      4 C4          -4.7220   -29.0020    34.4330 cd         1 EFJ       0.037400
      5 C5          -5.0190   -30.1950    35.2720 c3         1 EFJ      -0.064800
      6 N1          -4.6480   -27.7380    34.9680 na         1 EFJ      -0.109100
      7 C6          -4.7860   -27.2090    36.2340 cc         1 EFJ      -0.142400
      8 BR1         -5.0720   -28.1180    37.8210 br         1 EFJ       0.011300
      9 C7          -4.6200   -25.8550    36.0990 cd         1 EFJ       0.106400
     10 C8          -4.6410   -24.8410    37.1830 c3         1 EFJ       0.058900
     11 S1          -2.9650   -24.8080    37.9300 ss         1 EFJ      -0.139300
     12 C9          -3.2360   -23.9420    39.4180 cc         1 EFJ       0.413700
     13 N2          -4.1130   -22.9140    39.5620 na         1 EFJ      -0.266300
     14 C10         -3.9920   -22.4660    40.8530 ca         1 EFJ      -0.075200
     15 C11         -4.6360   -21.4600    41.5630 ca         1 EFJ      -0.135000
     16 C12         -4.2470   -21.2870    42.8800 ca         1 EFJ      -0.109000
     17 C13         -3.2580   -22.0900    43.4660 ca         1 EFJ      -0.154000
     18 C14         -2.6250   -23.0920    42.7520 ca         1 EFJ      -0.064000
     19 C15         -3.0000   -23.2810    41.4230 ca         1 EFJ       0.067400
     20 N3          -2.5570   -24.1990    40.5000 nd         1 EFJ      -0.542100
     21 N4          -4.3740   -25.5180    34.8140 nd         1 EFJ      -0.257600
     22 C16         -4.3910   -26.6420    34.1370 cd         1 EFJ       0.413500
     23 N5          -4.1890   -26.7610    32.8220 nd         1 EFJ      -0.630000
     24 H1          -3.8020   -27.1570    30.3640 hc         1 EFJ       0.061367
     25 H2          -3.1610   -28.7840    30.6520 hc         1 EFJ       0.061367
     26 H3          -4.8750   -28.5670    30.3540 hc         1 EFJ       0.061367
     27 H4          -4.5580   -30.0760    32.6300 ha         1 EFJ       0.157000
     28 H5          -4.2570   -30.3580    36.0320 hc         1 EFJ       0.068033
     29 H6          -5.9850   -30.1120    35.7680 hc         1 EFJ       0.068033
     30 H7          -5.0450   -31.0730    34.6320 hc         1 EFJ       0.068033
     31 H8          -4.8810   -23.8650    36.7650 h1         1 EFJ       0.083200
     32 H9          -5.3660   -25.0890    37.9570 h1         1 EFJ       0.083200
     33 H10         -4.7020   -22.5150    38.8470 hn         1 EFJ       0.308700
     34 H11         -5.3990   -20.8410    41.1110 ha         1 EFJ       0.135000
     35 H12         -4.7180   -20.5130    43.4730 ha         1 EFJ       0.130000
     36 H13         -2.9870   -21.9200    44.5000 ha         1 EFJ       0.132000
     37 H14         -1.8640   -23.7130    43.2070 ha         1 EFJ       0.147000
@<TRIPOS>BOND
     1     1     2 1   
     2     1    24 1   
     3     1    25 1   
     4     1    26 1   
     5     2     3 1   
     6     2    23 2   
     7     3     4 2   
     8     3    27 1   
     9     4     5 1   
    10     4     6 1   
    11     5    28 1   
    12     5    29 1   
    13     5    30 1   
    14     6     7 1   
    15     6    22 1   
    16     7     8 1   
    17     7     9 2   
    18     9    10 1   
    19     9    21 1   
    20    10    11 1   
    21    10    31 1   
    22    10    32 1   
    23    11    12 1   
    24    12    13 1   
    25    12    20 2   
    26    13    14 1   
    27    13    33 1   
    28    14    15 ar  
    29    14    19 ar  
    30    15    16 ar  
    31    15    34 1   
    32    16    17 ar  
    33    16    35 1   
    34    17    18 ar  
    35    17    36 1   
    36    18    19 ar  
    37    18    37 1   
    38    19    20 1   
    39    21    22 2   
    40    22    23 1   
@<TRIPOS>SUBSTRUCTURE
     1 EFJ         1 TEMP              0 ****  ****    0 ROOT
