@<TRIPOS>MOLECULE
EFL
   43    45     1     0     0
SMALL
No Charge or Current Charge


@<TRIPOS>ATOM
      1 CAZ          1.4160    -2.3990    -3.1440 c3         1 EFL       0.152900
      2 OAY          1.6010    -2.2770    -1.7220 os         1 EFL      -0.357100
      3 CAW          2.2180    -1.1850    -1.1420 ca         1 EFL       0.237100
      4 CAV          2.7220    -0.1210    -1.9230 ca         1 EFL      -0.215000
      5 CAU          3.3250     0.9900    -1.3090 ca         1 EFL       0.008000
      6 CAT          3.4260     1.0450     0.0890 ca         1 EFL      -0.080900
      7 Br           4.2400     2.5600     0.9270 br         1 EFL      -0.081100
      8 CAS          2.9300    -0.0060     0.8760 ca         1 EFL       0.056000
      9 CAR          2.3300    -1.1240     0.2600 ca         1 EFL      -0.338500
     10 SAO          1.6870    -2.4390     1.2870 sy         1 EFL       1.156600
     11 OAP          2.1740    -3.7330     0.8050 o          1 EFL      -0.527500
     12 OAQ          1.7510    -2.0670     2.7020 o          1 EFL      -0.527500
     13 NAN          0.0480    -2.5150     0.9300 nu         1 EFL      -0.861100
     14 CAB         -0.8770    -1.4740     0.8590 ca         1 EFL       0.235000
     15 CAC         -1.9560    -1.6010    -0.0330 ca         1 EFL      -0.132000
     16 CAD         -2.9090    -0.5780    -0.1420 ca         1 EFL       0.098100
     17 OAG         -3.9520    -0.7090    -1.0400 os         1 EFL      -0.339100
     18 CAH         -5.1580     0.0810    -0.8430 c6         1 EFL       0.114000
     19 CAL         -5.8740     0.0970    -2.2250 c3         1 EFL      -0.097600
     20 CAM         -6.0450    -0.6620     0.1970 c3         1 EFL      -0.097600
     21 CAI         -4.8490     1.5360    -0.3470 c          1 EFL       0.548000
     22 OAK         -5.4540     2.5360    -0.7230 o          1 EFL      -0.526000
     23 NAJ         -3.7240     1.6220     0.4440 ns         1 EFL      -0.139000
     24 CAE         -2.7810     0.5920     0.6280 ca         1 EFL      -0.079000
     25 CAF         -1.7090     0.7330     1.5220 ca         1 EFL      -0.119000
     26 CAA         -0.7630    -0.3030     1.6420 ca         1 EFL      -0.077000
     27 H1           0.9020    -3.3380    -3.3810 h1         1 EFL       0.052700
     28 H2           0.8060    -1.5720    -3.5300 h1         1 EFL       0.052700
     29 H3           2.3810    -2.4000    -3.6650 h1         1 EFL       0.052700
     30 H4           2.6530    -0.1320    -3.0060 ha         1 EFL       0.125000
     31 H5           3.7090     1.8070    -1.9160 ha         1 EFL       0.132000
     32 H6           3.0180     0.0570     1.9600 ha         1 EFL       0.161000
     33 H7          -0.0030    -3.2050     0.1930 hn         1 EFL       0.495000
     34 H8          -2.0600    -2.4920    -0.6440 ha         1 EFL       0.129000
     35 H9          -6.0560    -0.9210    -2.5920 hc         1 EFL       0.056700
     36 H10         -6.8440     0.6060    -2.1690 hc         1 EFL       0.056700
     37 H11         -5.2690     0.6180    -2.9770 hc         1 EFL       0.056700
     38 H12         -5.5580    -0.7070     1.1790 hc         1 EFL       0.056700
     39 H13         -7.0090    -0.1550     0.3310 hc         1 EFL       0.056700
     40 H14         -6.2520    -1.6920    -0.1180 hc         1 EFL       0.056700
     41 H15         -3.4860     2.5360     0.8070 hn         1 EFL       0.168000
     42 H16         -1.6020     1.6360     2.1190 ha         1 EFL       0.127000
     43 H17          0.0550    -0.1840     2.3440 ha         1 EFL       0.151000
@<TRIPOS>BOND
     1     1     2 1   
     2     1    27 1   
     3     1    28 1   
     4     1    29 1   
     5     2     3 1   
     6     3     4 ar  
     7     3     9 ar  
     8     4     5 ar  
     9     4    30 1   
    10     5     6 ar  
    11     5    31 1   
    12     6     7 1   
    13     6     8 ar  
    14     8     9 ar  
    15     8    32 1   
    16     9    10 1   
    17    10    11 2   
    18    10    12 2   
    19    10    13 1   
    20    13    14 1   
    21    13    33 1   
    22    14    15 ar  
    23    14    26 ar  
    24    15    16 ar  
    25    15    34 1   
    26    16    17 1   
    27    16    24 ar  
    28    17    18 1   
    29    18    19 1   
    30    18    20 1   
    31    18    21 1   
    32    19    35 1   
    33    19    36 1   
    34    19    37 1   
    35    20    38 1   
    36    20    39 1   
    37    20    40 1   
    38    21    22 2   
    39    21    23 1   
    40    23    24 1   
    41    23    41 1   
    42    24    25 ar  
    43    25    26 ar  
    44    25    42 1   
    45    26    43 1   
@<TRIPOS>SUBSTRUCTURE
     1 EFL         1 TEMP              0 ****  ****    0 ROOT
