@<TRIPOS>MOLECULE
EFL
   43    45     1     0     0
SMALL
bcc


@<TRIPOS>ATOM
      1 CAZ          1.1570    -3.0930    -2.7980 c3         1 EFL       0.129700
      2 OAY          1.4190    -2.6240    -1.4820 os         1 EFL      -0.333900
      3 CAW          1.8010    -1.3590    -1.3070 ca         1 EFL       0.237100
      4 CAV          1.9890    -0.4410    -2.3360 ca         1 EFL      -0.233000
      5 CAU          2.3650     0.8630    -2.0510 ca         1 EFL      -0.010000
      6 CAT          2.5500     1.2660    -0.7380 ca         1 EFL      -0.080900
      7 BR           3.0520     3.0430    -0.3620 br         1 EFL      -0.081100
      8 CAS          2.3660     0.3720     0.3030 ca         1 EFL       0.038000
      9 CAR          1.9990    -0.9330     0.0130 ca         1 EFL      -0.338500
     10 SAO          1.7680    -2.0710     1.3560 sy         1 EFL       1.298200
     11 OAP          2.5560    -3.2680     1.1360 o          1 EFL      -0.598300
     12 OAQ          1.9460    -1.3140     2.5820 o          1 EFL      -0.598300
     13 NAN          0.1780    -2.5470     1.2890 nu         1 EFL      -0.667500
     14 CAB         -0.8240    -1.5410     1.2660 ca         1 EFL       0.096600
     15 CAC         -1.4860    -1.2540     0.0750 ca         1 EFL      -0.150000
     16 CAD         -2.4710    -0.2840     0.0560 ca         1 EFL       0.098100
     17 OAG         -3.0880     0.0360    -1.1010 os         1 EFL      -0.315900
     18 CAH         -4.4590     0.4450    -0.9990 c6         1 EFL       0.090800
     19 CAL         -4.8280     0.9870    -2.3660 c3         1 EFL      -0.097600
     20 CAM         -5.3410    -0.7430    -0.6170 c3         1 EFL      -0.097600
     21 CAI         -4.6070     1.5260     0.0750 c          1 EFL       0.690500
     22 OAK         -5.4530     2.3960     0.0110 o          1 EFL      -0.601500
     23 NAJ         -3.7670     1.3990     1.1290 ns         1 EFL      -0.465100
     24 CAE         -2.7970     0.4080     1.2200 ca         1 EFL       0.013600
     25 CAF         -2.1400     0.1130     2.4040 ca         1 EFL      -0.137000
     26 CAA         -1.1560    -0.8640     2.4320 ca         1 EFL      -0.095000
     27 H1           0.8510    -4.1290    -2.6940 h1         1 EFL       0.052700
     28 H2           0.3520    -2.5280    -3.2710 h1         1 EFL       0.052700
     29 H3           2.0500    -3.0450    -3.4240 h1         1 EFL       0.052700
     30 H4           1.8450    -0.7210    -3.3690 ha         1 EFL       0.143000
     31 H5           2.5060     1.5550    -2.8700 ha         1 EFL       0.150000
     32 H6           2.5030     0.6790     1.3300 ha         1 EFL       0.179000
     33 H7           0.0450    -3.2860     0.6070 hn         1 EFL       0.439800
     34 H8          -1.2380    -1.7790    -0.8390 ha         1 EFL       0.147000
     35 H9          -4.6940     0.2080    -3.1170 hc         1 EFL       0.056700
     36 H10         -5.8710     1.2940    -2.3860 hc         1 EFL       0.056700
     37 H11         -4.2130     1.8430    -2.6400 hc         1 EFL       0.056700
     38 H12         -5.0670    -1.1750     0.3470 hc         1 EFL       0.056700
     39 H13         -6.3830    -0.4300    -0.5580 hc         1 EFL       0.056700
     40 H14         -5.2630    -1.5210    -1.3760 hc         1 EFL       0.056700
     41 H15         -3.8890     2.0350     1.9060 hn         1 EFL       0.334500
     42 H16         -2.3990     0.6450     3.3100 ha         1 EFL       0.145000
     43 H17         -0.6630    -1.1030     3.3620 ha         1 EFL       0.169000
@<TRIPOS>BOND
     1     1     2 1   
     2     1    27 1   
     3     1    28 1   
     4     1    29 1   
     5     2     3 1   
     6     3     4 ar  
     7     3     9 ar  
     8     4     5 ar  
     9     4    30 1   
    10     5     6 ar  
    11     5    31 1   
    12     6     7 1   
    13     6     8 ar  
    14     8     9 ar  
    15     8    32 1   
    16     9    10 1   
    17    10    11 2   
    18    10    12 2   
    19    10    13 1   
    20    13    14 1   
    21    13    33 1   
    22    14    15 ar  
    23    14    26 ar  
    24    15    16 ar  
    25    15    34 1   
    26    16    17 1   
    27    16    24 ar  
    28    17    18 1   
    29    18    19 1   
    30    18    20 1   
    31    18    21 1   
    32    19    35 1   
    33    19    36 1   
    34    19    37 1   
    35    20    38 1   
    36    20    39 1   
    37    20    40 1   
    38    21    22 2   
    39    21    23 1   
    40    23    24 1   
    41    23    41 1   
    42    24    25 ar  
    43    25    26 ar  
    44    25    42 1   
    45    26    43 1   
@<TRIPOS>SUBSTRUCTURE
     1 EFL         1 TEMP              0 ****  ****    0 ROOT
