@<TRIPOS>MOLECULE
EFM
   47    49     1     0     0
SMALL
abcg2


@<TRIPOS>ATOM
      1 CBA          3.8990     3.5940     0.9000 c3         1 EFM       0.150900
      2 OAK          2.6770     3.0660     0.4200 os         1 EFM      -0.342100
      3 CAB          2.5890     1.7460     0.2020 ca         1 EFM       0.152100
      4 CAA          3.5960     0.8330     0.4930 ca         1 EFM      -0.213000
      5 CAF          3.3930    -0.5200     0.2480 ca         1 EFM      -0.031000
      6 NAJ          4.3580    -1.4680     0.5590 ns         1 EFM      -0.141000
      7 CAI          4.3310    -2.7400     0.0890 c          1 EFM       0.549000
      8 OAZ          5.1890    -3.5540     0.3640 o          1 EFM      -0.525000
      9 CAH          3.1790    -3.0470    -0.8710 c6         1 EFM       0.114000
     10 CAX          3.6160    -2.6780    -2.2880 c3         1 EFM      -0.097100
     11 CAY          2.7760    -4.5070    -0.7850 c3         1 EFM      -0.097100
     12 OAG          2.0160    -2.3000    -0.4970 os         1 EFM      -0.331100
     13 CAE          2.2030    -0.9720    -0.3060 ca         1 EFM       0.051100
     14 CAD          1.2130    -0.0610    -0.6260 ca         1 EFM      -0.050000
     15 CAC          1.3930     1.2890    -0.3670 ca         1 EFM       0.220000
     16 NAL          0.3590     2.1990    -0.6840 nu         1 EFM      -0.907100
     17 SAM         -0.7470     2.6030     0.4810 sy         1 EFM       1.179600
     18 OAN         -0.2740     2.1250     1.7700 o          1 EFM      -0.538000
     19 OAO         -1.0730     4.0070     0.3100 o          1 EFM      -0.538000
     20 CAP         -2.1700     1.6300     0.0680 ca         1 EFM      -0.314500
     21 CAU         -2.6710     0.7520     1.0150 ca         1 EFM       0.051000
     22 CAT         -3.8040     0.0130     0.7170 ca         1 EFM      -0.084900
     23 BR          -4.4950    -1.1890     1.9940 br         1 EFM      -0.085100
     24 CAS         -4.4280     0.1500    -0.5120 ca         1 EFM       0.006000
     25 CAR         -3.9210     1.0280    -1.4580 ca         1 EFM      -0.224000
     26 CAQ         -2.7890     1.7890    -1.1810 ca         1 EFM       0.249100
     27 OAV         -2.2380     2.6590    -2.0220 os         1 EFM      -0.336100
     28 CBB         -2.8190     2.8430    -3.3040 c3         1 EFM       0.153900
     29 H1           4.1180     3.2480     1.9130 h1         1 EFM       0.046033
     30 H2           4.7370     3.3370     0.2470 h1         1 EFM       0.046033
     31 H3           3.7830     4.6740     0.9150 h1         1 EFM       0.046033
     32 H4           4.5380     1.1480     0.9220 ha         1 EFM       0.126000
     33 H5           5.1520    -1.1930     1.1210 hn         1 EFM       0.165000
     34 H6           4.4780    -3.2730    -2.5860 hc         1 EFM       0.055867
     35 H7           2.8040    -2.8860    -2.9860 hc         1 EFM       0.055867
     36 H8           3.8870    -1.6260    -2.3840 hc         1 EFM       0.055867
     37 H9           2.4320    -4.7690     0.2150 hc         1 EFM       0.055867
     38 H10          1.9710    -4.7060    -1.4930 hc         1 EFM       0.055867
     39 H11          3.6110    -5.1520    -1.0450 hc         1 EFM       0.055867
     40 H12          0.2880    -0.3990    -1.0750 ha         1 EFM       0.143000
     41 H13          0.5900     2.9850    -1.2800 hn         1 EFM       0.508000
     42 H14         -2.1750     0.6490     1.9700 ha         1 EFM       0.161000
     43 H15         -5.3100    -0.4260    -0.7560 ha         1 EFM       0.129000
     44 H16         -4.4270     1.1060    -2.4110 ha         1 EFM       0.123000
     45 H17         -2.8180     1.9170    -3.8820 h1         1 EFM       0.049700
     46 H18         -3.8410     3.2200    -3.2290 h1         1 EFM       0.049700
     47 H19         -2.2040     3.5790    -3.8120 h1         1 EFM       0.049700
@<TRIPOS>BOND
     1     1     2 1   
     2     1    29 1   
     3     1    30 1   
     4     1    31 1   
     5     2     3 1   
     6     3     4 ar  
     7     3    15 ar  
     8     4     5 ar  
     9     4    32 1   
    10     5     6 1   
    11     5    13 ar  
    12     6     7 1   
    13     6    33 1   
    14     7     8 2   
    15     7     9 1   
    16     9    10 1   
    17     9    11 1   
    18     9    12 1   
    19    10    34 1   
    20    10    35 1   
    21    10    36 1   
    22    11    37 1   
    23    11    38 1   
    24    11    39 1   
    25    12    13 1   
    26    13    14 ar  
    27    14    15 ar  
    28    14    40 1   
    29    15    16 1   
    30    16    17 1   
    31    16    41 1   
    32    17    18 2   
    33    17    19 2   
    34    17    20 1   
    35    20    21 ar  
    36    20    26 ar  
    37    21    22 ar  
    38    21    42 1   
    39    22    23 1   
    40    22    24 ar  
    41    24    25 ar  
    42    24    43 1   
    43    25    26 ar  
    44    25    44 1   
    45    26    27 1   
    46    27    28 1   
    47    28    45 1   
    48    28    46 1   
    49    28    47 1   
@<TRIPOS>SUBSTRUCTURE
     1 EFM         1 TEMP              0 ****  ****    0 ROOT
