@<TRIPOS>MOLECULE
EFM
   47    49     1     0     0
SMALL
No Charge or Current Charge


@<TRIPOS>ATOM
      1 CBA          2.8060     3.9720    -1.1180 c3         1 EFM       0.150900
      2 OAK          1.9410     3.3210    -0.1710 os         1 EFM      -0.342100
      3 CAB          2.0100     1.9600     0.0880 ca         1 EFM       0.152100
      4 CAA          2.9610     1.1280    -0.5490 ca         1 EFM      -0.213000
      5 CAF          2.9630    -0.2510    -0.2870 ca         1 EFM      -0.031000
      6 NAJ          3.8960    -1.1100    -0.8960 ns         1 EFM      -0.141000
      7 CAI          3.8950    -2.4840    -0.7920 c          1 EFM       0.549000
      8 OAZ          4.8810    -3.1560    -1.0800 o          1 EFM      -0.525000
      9 CAH          2.6020    -3.0620    -0.1180 c6         1 EFM       0.114000
     10 CAX          1.4970    -3.3020    -1.1880 c3         1 EFM      -0.097100
     11 CAY          2.9020    -4.3900     0.6350 c3         1 EFM      -0.097100
     12 OAG          2.0550    -2.1610     0.8840 os         1 EFM      -0.331100
     13 CAE          2.0430    -0.8040     0.6220 ca         1 EFM       0.051100
     14 CAD          1.1180     0.0190     1.2770 ca         1 EFM      -0.050000
     15 CAC          1.0770     1.4000     1.0020 ca         1 EFM       0.220000
     16 NAL          0.0940     2.2170     1.5730 nu         1 EFM      -0.907100
     17 SAM         -1.5450     1.8780     1.6210 sy         1 EFM       1.179600
     18 OAN         -1.6910     0.9090     2.7100 o          1 EFM      -0.538000
     19 OAO         -2.1400     3.2140     1.6820 o          1 EFM      -0.538000
     20 CAP         -1.8770     1.1100     0.0400 ca         1 EFM      -0.314500
     21 CAU         -2.2240    -0.2570     0.0040 ca         1 EFM       0.051000
     22 CAT         -2.4170    -0.9000    -1.2280 ca         1 EFM      -0.084900
     23 Br          -2.8590    -2.7600    -1.2720 br         1 EFM      -0.085100
     24 CAS         -2.2710    -0.1870    -2.4270 ca         1 EFM       0.006000
     25 CAR         -1.9200     1.1730    -2.3930 ca         1 EFM      -0.224000
     26 CAQ         -1.7120     1.8290    -1.1590 ca         1 EFM       0.249100
     27 OAV         -1.3190     3.1510    -1.1040 os         1 EFM      -0.336100
     28 CBB         -1.0210     3.9230    -2.2800 c3         1 EFM       0.153900
     29 H1           3.8580     3.8670    -0.8220 h1         1 EFM       0.046033
     30 H2           2.6770     3.5460    -2.1210 h1         1 EFM       0.046033
     31 H3           2.5740     5.0420    -1.1710 h1         1 EFM       0.046033
     32 H4           3.6850     1.5320    -1.2510 ha         1 EFM       0.126000
     33 H5           4.7000    -0.6810    -1.3360 hn         1 EFM       0.165000
     34 H6           1.8210    -4.0360    -1.9350 hc         1 EFM       0.055867
     35 H7           0.5740    -3.6790    -0.7300 hc         1 EFM       0.055867
     36 H8           1.2470    -2.3770    -1.7220 hc         1 EFM       0.055867
     37 H9           3.6770    -4.2460     1.3970 hc         1 EFM       0.055867
     38 H10          2.0060    -4.7720     1.1400 hc         1 EFM       0.055867
     39 H11          3.2510    -5.1700    -0.0520 hc         1 EFM       0.055867
     40 H12          0.4240    -0.4260     1.9810 ha         1 EFM       0.143000
     41 H13          0.1030     3.1640     1.2130 hn         1 EFM       0.508000
     42 H14         -2.3310    -0.8320     0.9230 ha         1 EFM       0.161000
     43 H15         -2.4210    -0.6880    -3.3810 ha         1 EFM       0.129000
     44 H16         -1.8040     1.6950    -3.3370 ha         1 EFM       0.123000
     45 H17         -0.2050     3.4610    -2.8520 h1         1 EFM       0.049700
     46 H18         -1.9030     4.0080    -2.9270 h1         1 EFM       0.049700
     47 H19         -0.7070     4.9360    -2.0000 h1         1 EFM       0.049700
@<TRIPOS>BOND
     1     1     2 1   
     2     1    29 1   
     3     1    30 1   
     4     1    31 1   
     5     2     3 1   
     6     3     4 ar  
     7     3    15 ar  
     8     4     5 ar  
     9     4    32 1   
    10     5     6 1   
    11     5    13 ar  
    12     6     7 1   
    13     6    33 1   
    14     7     8 2   
    15     7     9 1   
    16     9    10 1   
    17     9    11 1   
    18     9    12 1   
    19    10    34 1   
    20    10    35 1   
    21    10    36 1   
    22    11    37 1   
    23    11    38 1   
    24    11    39 1   
    25    12    13 1   
    26    13    14 ar  
    27    14    15 ar  
    28    14    40 1   
    29    15    16 1   
    30    16    17 1   
    31    16    41 1   
    32    17    18 2   
    33    17    19 2   
    34    17    20 1   
    35    20    21 ar  
    36    20    26 ar  
    37    21    22 ar  
    38    21    42 1   
    39    22    23 1   
    40    22    24 ar  
    41    24    25 ar  
    42    24    43 1   
    43    25    26 ar  
    44    25    44 1   
    45    26    27 1   
    46    27    28 1   
    47    28    45 1   
    48    28    46 1   
    49    28    47 1   
@<TRIPOS>SUBSTRUCTURE
     1 EFM         1 TEMP              0 ****  ****    0 ROOT
