@<TRIPOS>MOLECULE
EFN
   44    46     1     0     0
SMALL
No Charge or Current Charge


@<TRIPOS>ATOM
      1 CAZ         -2.5890    -1.0920     3.4440 c3         1 EFN       0.153900
      2 OAY         -2.3430    -1.5740     2.1100 os         1 EFN      -0.357100
      3 CAT         -2.6050    -0.8140     0.9860 ca         1 EFN       0.231100
      4 CAU         -3.0950     0.5070     1.0820 ca         1 EFN      -0.217000
      5 CAV         -3.3180     1.2680    -0.0780 ca         1 EFN       0.005000
      6 CAW         -3.0490     0.7160    -1.3390 ca         1 EFN      -0.079900
      7 Br          -3.3430     1.7560    -2.9170 br         1 EFN      -0.082100
      8 CAX         -2.5630    -0.5970    -1.4460 ca         1 EFN       0.056000
      9 CAS         -2.3460    -1.3640    -0.2830 ca         1 EFN      -0.339500
     10 SAP         -1.7160    -3.0290    -0.4390 sy         1 EFN       1.167600
     11 OAQ         -2.5530    -3.9510     0.3310 o          1 EFN      -0.526000
     12 OAR         -1.3370    -3.2980    -1.8290 o          1 EFN      -0.526000
     13 NAO         -0.2770    -3.0190     0.4290 nu         1 EFN      -0.862100
     14 CAC          0.8310    -2.2100     0.1340 ca         1 EFN       0.186000
     15 CAD          0.9970    -1.0130     0.8590 ca         1 EFN      -0.083000
     16 CAE          2.0830    -0.1660     0.5960 ca         1 EFN       0.048100
     17 OAG          2.2100     1.0170     1.2970 os         1 EFN      -0.333100
     18 CAH          3.5160     1.6540     1.3780 c6         1 EFN       0.113000
     19 CAL          4.3070     0.9660     2.5280 c3         1 EFN      -0.096600
     20 CAM          3.2320     3.1380     1.7530 c3         1 EFN      -0.096600
     21 CAI          4.3180     1.5510     0.0350 c          1 EFN       0.549000
     22 OAK          5.0130     2.4520    -0.4230 o          1 EFN      -0.521000
     23 NAJ          4.0550     0.4030    -0.6800 ns         1 EFN      -0.141000
     24 CAF          3.0140    -0.5020    -0.4050 ca         1 EFN      -0.019000
     25 CAA          2.8740    -1.6940    -1.1310 ca         1 EFN      -0.237000
     26 CAB          1.7940    -2.5560    -0.8620 ca         1 EFN       0.202100
     27 OAN          1.7110    -3.7300    -1.5620 oh         1 EFN      -0.492100
     28 H1          -2.3190    -1.8590     4.1800 h1         1 EFN       0.051700
     29 H2          -1.9900    -0.1960     3.6530 h1         1 EFN       0.051700
     30 H3          -3.6500    -0.8490     3.5810 h1         1 EFN       0.051700
     31 H4          -3.3030     0.9640     2.0440 ha         1 EFN       0.124000
     32 H5          -3.6930     2.2860     0.0020 ha         1 EFN       0.131000
     33 H6          -2.3590    -1.0070    -2.4350 ha         1 EFN       0.161000
     34 H7          -0.6520    -2.8720     1.3580 hn         1 EFN       0.497000
     35 H8           0.2810    -0.7290     1.6240 ha         1 EFN       0.132000
     36 H9           4.5050    -0.0890     2.3010 hc         1 EFN       0.056367
     37 H10          5.2750     1.4550     2.6920 hc         1 EFN       0.056367
     38 H11          3.7510     1.0030     3.4720 hc         1 EFN       0.056367
     39 H12          2.6370     3.2100     2.6720 hc         1 EFN       0.056367
     40 H13          4.1620     3.6960     1.9170 hc         1 EFN       0.056367
     41 H14          2.6760     3.6470     0.9560 hc         1 EFN       0.056367
     42 H15          4.5570     0.2760    -1.5490 hn         1 EFN       0.166000
     43 H16          3.6030    -1.9470    -1.8980 ha         1 EFN       0.125000
     44 H17          2.4560    -3.7640    -2.1940 ho         1 EFN       0.468000
@<TRIPOS>BOND
     1     1     2 1   
     2     1    28 1   
     3     1    29 1   
     4     1    30 1   
     5     2     3 1   
     6     3     4 ar  
     7     3     9 ar  
     8     4     5 ar  
     9     4    31 1   
    10     5     6 ar  
    11     5    32 1   
    12     6     7 1   
    13     6     8 ar  
    14     8     9 ar  
    15     8    33 1   
    16     9    10 1   
    17    10    11 2   
    18    10    12 2   
    19    10    13 1   
    20    13    14 1   
    21    13    34 1   
    22    14    15 ar  
    23    14    26 ar  
    24    15    16 ar  
    25    15    35 1   
    26    16    17 1   
    27    16    24 ar  
    28    17    18 1   
    29    18    19 1   
    30    18    20 1   
    31    18    21 1   
    32    19    36 1   
    33    19    37 1   
    34    19    38 1   
    35    20    39 1   
    36    20    40 1   
    37    20    41 1   
    38    21    22 2   
    39    21    23 1   
    40    23    24 1   
    41    23    42 1   
    42    24    25 ar  
    43    25    26 ar  
    44    25    43 1   
    45    26    27 1   
    46    27    44 1   
@<TRIPOS>SUBSTRUCTURE
     1 EFN         1 TEMP              0 ****  ****    0 ROOT
