@<TRIPOS>MOLECULE
EFN
   44    46     1     0     0
SMALL
abcg2


@<TRIPOS>ATOM
      1 CAZ         -2.8080    -1.3910     3.4080 c3         1 EFN       0.153900
      2 OAY         -2.4740    -1.7430     2.0720 os         1 EFN      -0.357100
      3 CAT         -2.6760    -0.8560     1.0960 ca         1 EFN       0.231100
      4 CAU         -3.2280     0.4080     1.2800 ca         1 EFN      -0.217000
      5 CAV         -3.3690     1.2730     0.2050 ca         1 EFN       0.005000
      6 CAW         -2.9560     0.8880    -1.0600 ca         1 EFN      -0.079900
      7 BR          -3.1430     2.0750    -2.5110 br         1 EFN      -0.082100
      8 CAX         -2.4000    -0.3640    -1.2670 ca         1 EFN       0.056000
      9 CAS         -2.2690    -1.2290    -0.1920 ca         1 EFN      -0.339500
     10 SAP         -1.5730    -2.8410    -0.4700 sy         1 EFN       1.167600
     11 OAQ         -2.4970    -3.8430     0.0230 o          1 EFN      -0.526000
     12 OAR         -1.1350    -2.8740    -1.8530 o          1 EFN      -0.526000
     13 NAO         -0.2140    -2.9430     0.4680 nu         1 EFN      -0.862100
     14 CAC          0.8810    -2.1020     0.1470 ca         1 EFN       0.186000
     15 CAD          0.9880    -0.8250     0.6900 ca         1 EFN      -0.083000
     16 CAE          2.0630    -0.0180     0.3820 ca         1 EFN       0.048100
     17 OAG          2.1450     1.2500     0.8520 os         1 EFN      -0.333100
     18 CAH          3.4630     1.7180     1.1560 c6         1 EFN       0.113000
     19 CAL          4.0290     0.9860     2.3720 c3         1 EFN      -0.096600
     20 CAM          3.3180     3.2040     1.4250 c3         1 EFN      -0.096600
     21 CAI          4.3910     1.4710    -0.0370 c          1 EFN       0.549000
     22 OAK          5.3320     2.1930    -0.2920 o          1 EFN      -0.521000
     23 NAJ          4.1170     0.3520    -0.7520 ns         1 EFN      -0.141000
     24 CAF          3.0590    -0.4980    -0.4630 ca         1 EFN      -0.019000
     25 CAA          2.9730    -1.7740    -0.9970 ca         1 EFN      -0.237000
     26 CAB          1.8820    -2.5860    -0.7000 ca         1 EFN       0.202100
     27 OAN          1.7640    -3.8320    -1.1800 oh         1 EFN      -0.492100
     28 H1          -2.5370    -2.2450     4.0210 h1         1 EFN       0.051700
     29 H2          -2.2450    -0.5170     3.7420 h1         1 EFN       0.051700
     30 H3          -3.8770    -1.1980     3.5150 h1         1 EFN       0.051700
     31 H4          -3.5510     0.7410     2.2560 ha         1 EFN       0.124000
     32 H5          -3.8020     2.2490     0.3770 ha         1 EFN       0.131000
     33 H6          -2.0710    -0.6710    -2.2490 ha         1 EFN       0.161000
     34 H7          -0.4260    -3.0440     1.4550 hn         1 EFN       0.497000
     35 H8           0.2180    -0.4530     1.3540 ha         1 EFN       0.132000
     36 H9           4.1350    -0.0870     2.2030 hc         1 EFN       0.056367
     37 H10          5.0100     1.3840     2.6270 hc         1 EFN       0.056367
     38 H11          3.3690     1.1330     3.2280 hc         1 EFN       0.056367
     39 H12          2.6270     3.3600     2.2530 hc         1 EFN       0.056367
     40 H13          4.2750     3.6410     1.6990 hc         1 EFN       0.056367
     41 H14          2.9370     3.7350     0.5520 hc         1 EFN       0.056367
     42 H15          4.7620     0.0970    -1.4890 hn         1 EFN       0.166000
     43 H16          3.7660    -2.1390    -1.6410 ha         1 EFN       0.125000
     44 H17          2.5050    -4.0390    -1.7590 ho         1 EFN       0.468000
@<TRIPOS>BOND
     1     1     2 1   
     2     1    28 1   
     3     1    29 1   
     4     1    30 1   
     5     2     3 1   
     6     3     4 ar  
     7     3     9 ar  
     8     4     5 ar  
     9     4    31 1   
    10     5     6 ar  
    11     5    32 1   
    12     6     7 1   
    13     6     8 ar  
    14     8     9 ar  
    15     8    33 1   
    16     9    10 1   
    17    10    11 2   
    18    10    12 2   
    19    10    13 1   
    20    13    14 1   
    21    13    34 1   
    22    14    15 ar  
    23    14    26 ar  
    24    15    16 ar  
    25    15    35 1   
    26    16    17 1   
    27    16    24 ar  
    28    17    18 1   
    29    18    19 1   
    30    18    20 1   
    31    18    21 1   
    32    19    36 1   
    33    19    37 1   
    34    19    38 1   
    35    20    39 1   
    36    20    40 1   
    37    20    41 1   
    38    21    22 2   
    39    21    23 1   
    40    23    24 1   
    41    23    42 1   
    42    24    25 ar  
    43    25    26 ar  
    44    25    43 1   
    45    26    27 1   
    46    27    44 1   
@<TRIPOS>SUBSTRUCTURE
     1 EFN         1 TEMP              0 ****  ****    0 ROOT
