@<TRIPOS>MOLECULE
EFO
  130   132     1     0     0
SMALL
No Charge or Current Charge


@<TRIPOS>ATOM
      1 C1A         -4.4240     2.8810    -1.0770 c3         1 EFO      -0.081100
      2 C10         -3.9710     1.4830    -1.6140 c6         1 EFO      -0.076700
      3 C11         -2.5830     1.0720    -1.0280 c6         1 EFO       0.182300
      4 C12         -2.1300    -0.3110    -1.5610 c6         1 EFO      -0.095700
      5 C1B         -1.7750    -0.3020    -3.0840 c3         1 EFO      -0.077100
      6 O37         -1.5500     2.0430    -1.3110 os         1 EFO      -0.455100
      7 C36         -1.1620     2.9680    -0.3820 c          1 EFO       0.603300
      8 O36         -1.6350     3.0760     0.7390 o          1 EFO      -0.491000
      9 C35         -0.0310     3.7840    -0.8940 ce         1 EFO      -0.291200
     10 C34          0.5630     4.7770    -0.1890 c2         1 EFO      -0.122200
     11 C33          1.7170     5.6640    -0.6480 c3         1 EFO      -0.080500
     12 C3B          2.6330     4.9880    -1.6990 c3         1 EFO      -0.091100
     13 C32          2.5060     6.3010     0.5450 c3         1 EFO       0.192300
     14 O32          1.6750     7.3170     1.1200 oh         1 EFO      -0.646000
     15 C31          2.9630     5.3470     1.6950 c3         1 EFO      -0.155700
     16 C3A          3.7530     6.1130     2.7960 c3         1 EFO      -0.077100
     17 C30          3.8030     4.1490     1.2000 c          1 EFO       0.578100
     18 O30          4.8860     4.3240     0.6510 o          1 EFO      -0.544100
     19 C29          3.3020     2.7200     1.5520 c3         1 EFO      -0.171700
     20 C2D          3.7530     2.3550     2.9920 c3         1 EFO      -0.079100
     21 C28          3.6880     1.6710     0.4540 c3         1 EFO       0.198300
     22 O28          5.1090     1.6190     0.3250 oh         1 EFO      -0.653000
     23 C27          3.1330     0.2160     0.5720 c3         1 EFO      -0.145700
     24 C2C          1.6130     0.1450     0.8730 c3         1 EFO      -0.078100
     25 C26          3.9770    -0.7220     1.4900 c          1 EFO       0.579100
     26 O26          3.7690    -0.7690     2.6990 o          1 EFO      -0.505100
     27 C25          5.1400    -1.5820     0.8440 c3         1 EFO       0.090000
     28 C2B          6.3190    -1.6910     1.8520 c3         1 EFO      -0.126100
     29 O25          5.6900    -0.9450    -0.3400 oh         1 EFO      -0.640000
     30 C24          4.5330    -3.0030     0.5120 c3         1 EFO       0.194300
     31 O24          3.4210    -2.8630    -0.3830 oh         1 EFO      -0.659000
     32 C23          5.5010    -4.1290    -0.0210 c3         1 EFO      -0.077700
     33 C2A          6.0730    -3.8780    -1.4430 c3         1 EFO      -0.076100
     34 C22          4.8770    -5.5560     0.0830 c3         1 EFO      -0.049200
     35 C21          3.6040    -5.7180    -0.7230 c2         1 EFO      -0.223200
     36 C20          2.3610    -5.6270    -0.2110 ce         1 EFO      -0.187000
     37 C19          1.1570    -5.5780    -1.0370 ce         1 EFO      -0.197000
     38 C18         -0.0320    -5.1830    -0.5320 c2         1 EFO      -0.192200
     39 C17         -1.3320    -4.8670    -1.2620 c3         1 EFO      -0.023500
     40 C1C         -1.3920    -5.3530    -2.7420 c3         1 EFO      -0.069400
     41 C1D         -0.6160    -4.5070    -3.7830 c3         1 EFO      -0.090100
     42 C16         -1.6100    -3.3520    -1.0720 c3         1 EFO      -0.070400
     43 C15         -2.9550    -2.8070    -1.6140 c3         1 EFO      -0.071400
     44 C13         -3.2360    -1.3350    -1.1890 c6         1 EFO       0.177300
     45 O14         -4.4790    -0.9320    -1.7970 os         1 EFO      -0.483000
     46 C8          -5.0180     0.3360    -1.3470 c6         1 EFO       0.407000
     47 O9          -5.2950     0.2550     0.0720 os         1 EFO      -0.484000
     48 C7          -6.3550     0.5860    -2.1170 c6         1 EFO      -0.085400
     49 C6          -7.4470    -0.4430    -1.7220 c6         1 EFO      -0.069400
     50 C5          -7.6290    -0.4970    -0.1810 c6         1 EFO      -0.087700
     51 C51         -8.3330     0.7840     0.3640 c3         1 EFO      -0.083100
     52 C4          -6.2370    -0.7710     0.4660 c6         1 EFO       0.179300
     53 C3          -6.2500    -0.8180     2.0190 c3         1 EFO      -0.064400
     54 C2          -4.9200    -1.2860     2.6580 c3         1 EFO       0.171300
     55 C1          -4.9340    -1.1650     4.1940 c3         1 EFO      -0.126100
     56 O2          -4.6760    -2.6540     2.3150 oh         1 EFO      -0.669000
     57 H1          -4.5650     2.8670     0.0110 hc         1 EFO       0.042033
     58 H2          -3.6830     3.6550    -1.3040 hc         1 EFO       0.042033
     59 H3          -5.3600     3.2220    -1.5310 hc         1 EFO       0.042033
     60 H4          -3.8680     1.6040    -2.7000 hc         1 EFO       0.068700
     61 H5          -2.6880     0.9720     0.0630 h1         1 EFO       0.078700
     62 H6          -1.2070    -0.5730    -1.0280 hc         1 EFO       0.057700
     63 H7          -2.6580    -0.1420    -3.7130 hc         1 EFO       0.037367
     64 H8          -1.0490     0.4840    -3.3240 hc         1 EFO       0.037367
     65 H9          -1.3210    -1.2490    -3.3940 hc         1 EFO       0.037367
     66 H10          0.2940     3.5280    -1.8990 ha         1 EFO       0.196000
     67 H11          0.1840     5.0210     0.8080 ha         1 EFO       0.201000
     68 H12          1.2660     6.5050    -1.1910 hc         1 EFO       0.060700
     69 H13          2.0950     4.8430    -2.6430 hc         1 EFO       0.040367
     70 H14          3.5080     5.6120    -1.9160 hc         1 EFO       0.040367
     71 H15          2.9840     4.0090    -1.3640 hc         1 EFO       0.040367
     72 H16          3.4070     6.7750     0.1310 h1         1 EFO       0.045700
     73 H17          1.5430     8.0060     0.4330 ho         1 EFO       0.443000
     74 H18          2.0640     4.9460     2.1760 hc         1 EFO       0.071700
     75 H19          3.1300     6.8810     3.2720 hc         1 EFO       0.050700
     76 H20          4.0940     5.4350     3.5860 hc         1 EFO       0.050700
     77 H21          4.6360     6.6060     2.3720 hc         1 EFO       0.050700
     78 H22          2.2100     2.7850     1.6140 hc         1 EFO       0.063700
     79 H23          3.5890     3.1920     3.6790 hc         1 EFO       0.045700
     80 H24          3.1650     1.5220     3.3860 hc         1 EFO       0.045700
     81 H25          4.8170     2.0910     3.0270 hc         1 EFO       0.045700
     82 H26          3.2710     2.0580    -0.4840 h1         1 EFO       0.037700
     83 H27          5.4090     2.5620     0.3200 ho         1 EFO       0.451000
     84 H28          3.2590    -0.1720    -0.4440 hc         1 EFO       0.053700
     85 H29          1.0470     0.7660     0.1670 hc         1 EFO       0.047367
     86 H30          1.2520    -0.8860     0.7790 hc         1 EFO       0.047367
     87 H31          1.3890     0.4890     1.8900 hc         1 EFO       0.047367
     88 H32          7.1970    -2.1600     1.3930 hc         1 EFO       0.051367
     89 H33          6.6220    -0.6960     2.1990 hc         1 EFO       0.051367
     90 H34          6.0360    -2.2840     2.7300 hc         1 EFO       0.051367
     91 H35          5.5860     0.0330    -0.2040 ho         1 EFO       0.442000
     92 H36          4.1480    -3.3810     1.4700 h1         1 EFO       0.047700
     93 H37          3.1390    -3.7830    -0.5960 ho         1 EFO       0.452000
     94 H38          6.3650    -4.1570     0.6520 hc         1 EFO       0.053700
     95 H39          5.2730    -3.7230    -2.1770 hc         1 EFO       0.038367
     96 H40          6.7320    -3.0050    -1.4590 hc         1 EFO       0.038367
     97 H41          6.6720    -4.7350    -1.7750 hc         1 EFO       0.038367
     98 H42          5.6160    -6.3000    -0.2420 hc         1 EFO       0.047200
     99 H43          4.6810    -5.7790     1.1390 hc         1 EFO       0.047200
    100 H44          3.7600    -5.8380    -1.7980 ha         1 EFO       0.173000
    101 H45          2.2250    -5.4780     0.8640 ha         1 EFO       0.168000
    102 H46          1.2850    -5.7860    -2.1000 ha         1 EFO       0.176000
    103 H47         -0.0970    -4.9690     0.5370 ha         1 EFO       0.165000
    104 H48         -2.1310    -5.4040    -0.7340 hc         1 EFO       0.056700
    105 H49         -1.0330    -6.3890    -2.7850 hc         1 EFO       0.040200
    106 H50         -2.4430    -5.3930    -3.0570 hc         1 EFO       0.040200
    107 H51         -0.5530    -5.0470    -4.7350 hc         1 EFO       0.032700
    108 H52         -1.1280    -3.5590    -3.9760 hc         1 EFO       0.032700
    109 H53          0.4020    -4.2770    -3.4530 hc         1 EFO       0.032700
    110 H54         -1.5720    -3.1290     0.0020 hc         1 EFO       0.041200
    111 H55         -0.7820    -2.7940    -1.5240 hc         1 EFO       0.041200
    112 H56         -2.9810    -2.8960    -2.7050 hc         1 EFO       0.054200
    113 H57         -3.7650    -3.4430    -1.2370 hc         1 EFO       0.054200
    114 H58         -3.3600    -1.3380    -0.0960 h1         1 EFO       0.048700
    115 H59         -6.7400     1.5920    -1.9230 hc         1 EFO       0.056700
    116 H60         -6.1720     0.5340    -3.1980 hc         1 EFO       0.056700
    117 H61         -8.3980    -0.1950    -2.2140 hc         1 EFO       0.047700
    118 H62         -7.1630    -1.4380    -2.0920 hc         1 EFO       0.047700
    119 H63         -8.2970    -1.3370     0.0560 hc         1 EFO       0.051700
    120 H64         -9.2550     0.9940    -0.1910 hc         1 EFO       0.033700
    121 H65         -8.6130     0.6690     1.4170 hc         1 EFO       0.033700
    122 H66         -7.6900     1.6690     0.2870 hc         1 EFO       0.033700
    123 H67         -5.8770    -1.7470     0.1090 h1         1 EFO       0.060700
    124 H68         -6.4850     0.1780     2.4120 hc         1 EFO       0.055200
    125 H69         -7.0550    -1.4810     2.3600 hc         1 EFO       0.055200
    126 H70         -4.1080    -0.6510     2.2760 h1         1 EFO       0.044700
    127 H71         -5.7300    -1.7830     4.6290 hc         1 EFO       0.040033
    128 H72         -3.9750    -1.4860     4.6180 hc         1 EFO       0.040033
    129 H73         -5.1040    -0.1250     4.4950 hc         1 EFO       0.040033
    130 H74         -3.8700    -2.9310     2.8010 ho         1 EFO       0.439000
@<TRIPOS>BOND
     1     1     2 1   
     2     1    57 1   
     3     1    58 1   
     4     1    59 1   
     5     2     3 1   
     6     2    46 1   
     7     2    60 1   
     8     3     4 1   
     9     3     6 1   
    10     3    61 1   
    11     4     5 1   
    12     4    44 1   
    13     4    62 1   
    14     5    63 1   
    15     5    64 1   
    16     5    65 1   
    17     6     7 1   
    18     7     8 2   
    19     7     9 1   
    20     9    10 2   
    21     9    66 1   
    22    10    11 1   
    23    10    67 1   
    24    11    12 1   
    25    11    13 1   
    26    11    68 1   
    27    12    69 1   
    28    12    70 1   
    29    12    71 1   
    30    13    14 1   
    31    13    15 1   
    32    13    72 1   
    33    14    73 1   
    34    15    16 1   
    35    15    17 1   
    36    15    74 1   
    37    16    75 1   
    38    16    76 1   
    39    16    77 1   
    40    17    18 2   
    41    17    19 1   
    42    19    20 1   
    43    19    21 1   
    44    19    78 1   
    45    20    79 1   
    46    20    80 1   
    47    20    81 1   
    48    21    22 1   
    49    21    23 1   
    50    21    82 1   
    51    22    83 1   
    52    23    24 1   
    53    23    25 1   
    54    23    84 1   
    55    24    85 1   
    56    24    86 1   
    57    24    87 1   
    58    25    26 2   
    59    25    27 1   
    60    27    28 1   
    61    27    29 1   
    62    27    30 1   
    63    28    88 1   
    64    28    89 1   
    65    28    90 1   
    66    29    91 1   
    67    30    31 1   
    68    30    32 1   
    69    30    92 1   
    70    31    93 1   
    71    32    33 1   
    72    32    34 1   
    73    32    94 1   
    74    33    95 1   
    75    33    96 1   
    76    33    97 1   
    77    34    35 1   
    78    34    98 1   
    79    34    99 1   
    80    35    36 2   
    81    35   100 1   
    82    36    37 1   
    83    36   101 1   
    84    37    38 2   
    85    37   102 1   
    86    38    39 1   
    87    38   103 1   
    88    39    40 1   
    89    39    42 1   
    90    39   104 1   
    91    40    41 1   
    92    40   105 1   
    93    40   106 1   
    94    41   107 1   
    95    41   108 1   
    96    41   109 1   
    97    42    43 1   
    98    42   110 1   
    99    42   111 1   
   100    43    44 1   
   101    43   112 1   
   102    43   113 1   
   103    44    45 1   
   104    44   114 1   
   105    45    46 1   
   106    46    47 1   
   107    46    48 1   
   108    47    52 1   
   109    48    49 1   
   110    48   115 1   
   111    48   116 1   
   112    49    50 1   
   113    49   117 1   
   114    49   118 1   
   115    50    51 1   
   116    50    52 1   
   117    50   119 1   
   118    51   120 1   
   119    51   121 1   
   120    51   122 1   
   121    52    53 1   
   122    52   123 1   
   123    53    54 1   
   124    53   124 1   
   125    53   125 1   
   126    54    55 1   
   127    54    56 1   
   128    54   126 1   
   129    55   127 1   
   130    55   128 1   
   131    55   129 1   
   132    56   130 1   
@<TRIPOS>SUBSTRUCTURE
     1 EFO         1 TEMP              0 ****  ****    0 ROOT
