@<TRIPOS>MOLECULE
EFO
  130   132     1     0     0
SMALL
abcg2


@<TRIPOS>ATOM
      1 C1A         -5.3880     2.9390    -0.5700 c3         1 EFO      -0.081100
      2 C10         -4.7740     1.6830    -1.1790 c6         1 EFO      -0.076700
      3 C11         -3.3300     1.4900    -0.7130 c6         1 EFO       0.182300
      4 C12         -2.6880     0.2300    -1.2910 c6         1 EFO      -0.095700
      5 C1B         -2.4610     0.2930    -2.7990 c3         1 EFO      -0.077100
      6 O37         -2.5280     2.6060    -1.1230 os         1 EFO      -0.455100
      7 C36         -1.9940     3.4370    -0.2320 c          1 EFO       0.603300
      8 O36         -2.2990     3.4800     0.9370 o          1 EFO      -0.491000
      9 C35         -0.9520     4.2560    -0.8750 ce         1 EFO      -0.291200
     10 C34         -0.2520     5.1670    -0.1990 c2         1 EFO      -0.122200
     11 C33          0.9300     5.9080    -0.7310 c3         1 EFO      -0.080500
     12 C3B          1.2540     5.6110    -2.1880 c3         1 EFO      -0.091100
     13 C32          2.1730     5.6630     0.1650 c3         1 EFO       0.192300
     14 O32          2.0550     6.3210     1.4030 oh         1 EFO      -0.646000
     15 C31          2.4130     4.1580     0.4080 c3         1 EFO      -0.155700
     16 C3A          1.9930     3.6850     1.8100 c3         1 EFO      -0.077100
     17 C30          3.8560     3.7420     0.2130 c          1 EFO       0.578100
     18 O30          4.7590     4.5220     0.4310 o          1 EFO      -0.544100
     19 C29          4.1790     2.3160    -0.2530 c3         1 EFO      -0.171700
     20 C2D          2.9840     1.3750    -0.3790 c3         1 EFO      -0.079100
     21 C28          5.3810     1.8090     0.5780 c3         1 EFO       0.198300
     22 O28          5.1240     1.8600     1.9650 oh         1 EFO      -0.653000
     23 C27          5.9440     0.4240     0.2140 c3         1 EFO      -0.145700
     24 C2C          6.0780     0.2540    -1.3030 c3         1 EFO      -0.078100
     25 C26          5.2690    -0.7500     0.8950 c          1 EFO       0.579100
     26 O26          4.1830    -0.6810     1.4170 o          1 EFO      -0.505100
     27 C25          6.0500    -2.0840     1.0250 c3         1 EFO       0.090000
     28 C2B          6.3130    -2.3040     2.5170 c3         1 EFO      -0.126100
     29 O25          7.2640    -2.0890     0.3140 oh         1 EFO      -0.640000
     30 C24          5.1320    -3.1770     0.4550 c3         1 EFO       0.194300
     31 O24          4.6880    -2.7200    -0.8050 oh         1 EFO      -0.659000
     32 C23          5.7440    -4.5900     0.3850 c3         1 EFO      -0.077700
     33 C2A          6.4900    -4.8800    -0.9140 c3         1 EFO      -0.076100
     34 C22          4.6430    -5.6430     0.6430 c3         1 EFO      -0.049200
     35 C21          3.4710    -5.5360    -0.2800 c2         1 EFO      -0.223200
     36 C20          2.2710    -5.0770     0.0990 ce         1 EFO      -0.187000
     37 C19          1.1190    -4.9080    -0.7700 ce         1 EFO      -0.197000
     38 C18         -0.0230    -4.3650    -0.3350 c2         1 EFO      -0.192200
     39 C17         -1.2860    -4.1020    -1.1010 c3         1 EFO      -0.023500
     40 C1C         -1.2170    -4.4610    -2.5880 c3         1 EFO      -0.069400
     41 C1D         -0.3840    -3.5190    -3.4520 c3         1 EFO      -0.090100
     42 C16         -1.7220    -2.6530    -0.8400 c3         1 EFO      -0.070400
     43 C15         -3.1140    -2.3060    -1.3560 c3         1 EFO      -0.071400
     44 C13         -3.5740    -0.9410    -0.8650 c6         1 EFO       0.177300
     45 O14         -4.8910    -0.7390    -1.3470 os         1 EFO      -0.483000
     46 C8          -5.5690     0.3980    -0.8650 c6         1 EFO       0.407000
     47 O9          -5.7000     0.3560     0.5280 os         1 EFO      -0.484000
     48 C7          -6.9360     0.3580    -1.5480 c6         1 EFO      -0.085400
     49 C6          -7.7900    -0.7840    -1.0030 c6         1 EFO      -0.069400
     50 C5          -7.8610    -0.7470     0.5270 c6         1 EFO      -0.087700
     51 C51         -8.7050     0.4220     1.0280 c3         1 EFO      -0.083100
     52 C4          -6.4270    -0.7450     1.0600 c6         1 EFO       0.179300
     53 C3          -6.3170    -0.6560     2.5720 c3         1 EFO      -0.064400
     54 C2          -4.8950    -0.7640     3.1060 c3         1 EFO       0.171300
     55 C1          -4.8670    -0.6350     4.6220 c3         1 EFO      -0.126100
     56 O2          -4.3620    -2.0110     2.6880 oh         1 EFO      -0.669000
     57 H1          -5.2990     2.9500     0.5150 hc         1 EFO       0.042033
     58 H2          -4.8980     3.8320    -0.9580 hc         1 EFO       0.042033
     59 H3          -6.4440     3.0340    -0.8200 hc         1 EFO       0.042033
     60 H4          -4.7820     1.7900    -2.2690 hc         1 EFO       0.068700
     61 H5          -3.3140     1.4190     0.3780 h1         1 EFO       0.078700
     62 H6          -1.7160     0.1050    -0.8000 hc         1 EFO       0.057700
     63 H7          -3.3930     0.3280    -3.3630 hc         1 EFO       0.037367
     64 H8          -1.8700     1.1640    -3.0770 hc         1 EFO       0.037367
     65 H9          -1.9090    -0.5810    -3.1450 hc         1 EFO       0.037367
     66 H10         -0.7330     4.0330    -1.9120 ha         1 EFO       0.196000
     67 H11         -0.5110     5.3690     0.8360 ha         1 EFO       0.201000
     68 H12          0.7090     6.9810    -0.6500 hc         1 EFO       0.060700
     69 H13          0.4170     5.8540    -2.8420 hc         1 EFO       0.040367
     70 H14          2.1070     6.2070    -2.5120 hc         1 EFO       0.040367
     71 H15          1.5060     4.5610    -2.3510 hc         1 EFO       0.040367
     72 H16          3.0220     6.0760    -0.3930 h1         1 EFO       0.045700
     73 H17          2.0030     7.2670     1.2340 ho         1 EFO       0.443000
     74 H18          1.8040     3.6000    -0.3050 hc         1 EFO       0.071700
     75 H19          0.9300     3.8550     1.9750 hc         1 EFO       0.050700
     76 H20          2.1700     2.6180     1.9290 hc         1 EFO       0.050700
     77 H21          2.5490     4.1990     2.5920 hc         1 EFO       0.050700
     78 H22          4.5640     2.4740    -1.2700 hc         1 EFO       0.063700
     79 H23          2.2200     1.7990    -1.0310 hc         1 EFO       0.045700
     80 H24          3.2840     0.4340    -0.8340 hc         1 EFO       0.045700
     81 H25          2.5280     1.1340     0.5760 hc         1 EFO       0.045700
     82 H26          6.2010     2.4940     0.3330 h1         1 EFO       0.037700
     83 H27          5.3830     2.7280     2.2840 ho         1 EFO       0.451000
     84 H28          6.9700     0.4280     0.6050 hc         1 EFO       0.053700
     85 H29          6.5960     1.1220    -1.7170 hc         1 EFO       0.047367
     86 H30          6.6560    -0.6300    -1.5530 hc         1 EFO       0.047367
     87 H31          5.1130     0.1730    -1.8000 hc         1 EFO       0.047367
     88 H32          6.8470    -3.2390     2.6810 hc         1 EFO       0.051367
     89 H33          6.9320    -1.4980     2.9210 hc         1 EFO       0.051367
     90 H34          5.3900    -2.3280     3.0930 hc         1 EFO       0.051367
     91 H35          7.9320    -1.6170     0.8220 ho         1 EFO       0.442000
     92 H36          4.2840    -3.2190     1.1510 h1         1 EFO       0.047700
     93 H37          3.9120    -3.2370    -1.0480 ho         1 EFO       0.452000
     94 H38          6.4580    -4.7010     1.2070 hc         1 EFO       0.053700
     95 H39          5.8300    -4.8740    -1.7820 hc         1 EFO       0.038367
     96 H40          7.2800    -4.1540    -1.0930 hc         1 EFO       0.038367
     97 H41          6.9470    -5.8690    -0.8630 hc         1 EFO       0.038367
     98 H42          5.0910    -6.6380     0.5610 hc         1 EFO       0.047200
     99 H43          4.2950    -5.5410     1.6750 hc         1 EFO       0.047200
    100 H44          3.6200    -5.8290    -1.3170 ha         1 EFO       0.173000
    101 H45          2.1280    -4.7910     1.1390 ha         1 EFO       0.168000
    102 H46          1.2280    -5.2270    -1.8030 ha         1 EFO       0.176000
    103 H47         -0.0640    -4.0630     0.7110 ha         1 EFO       0.165000
    104 H48         -2.0560    -4.7450    -0.6510 hc         1 EFO       0.056700
    105 H49         -0.8350    -5.4810    -2.6830 hc         1 EFO       0.040200
    106 H50         -2.2340    -4.4980    -2.9850 hc         1 EFO       0.040200
    107 H51         -0.2340    -3.9430    -4.4450 hc         1 EFO       0.032700
    108 H52         -0.8740    -2.5540    -3.5910 hc         1 EFO       0.032700
    109 H53          0.6000    -3.3230    -3.0260 hc         1 EFO       0.032700
    110 H54         -1.7020    -2.4790     0.2410 hc         1 EFO       0.041200
    111 H55         -0.9750    -1.9750    -1.2620 hc         1 EFO       0.041200
    112 H56         -3.1530    -2.3510    -2.4480 hc         1 EFO       0.054200
    113 H57         -3.8250    -3.0530    -0.9900 hc         1 EFO       0.054200
    114 H58         -3.5790    -0.9840     0.2330 h1         1 EFO       0.048700
    115 H59         -7.4520     1.3070    -1.3940 hc         1 EFO       0.056700
    116 H60         -6.7940     0.2550    -2.6260 hc         1 EFO       0.056700
    117 H61         -8.7960    -0.7250    -1.4270 hc         1 EFO       0.047700
    118 H62         -7.3730    -1.7420    -1.3210 hc         1 EFO       0.047700
    119 H63         -8.3260    -1.6770     0.8710 hc         1 EFO       0.051700
    120 H64         -9.6990     0.3900     0.5770 hc         1 EFO       0.033700
    121 H65         -8.8430     0.3900     2.1090 hc         1 EFO       0.033700
    122 H66         -8.2650     1.3890     0.7810 hc         1 EFO       0.033700
    123 H67         -5.9580    -1.6830     0.7390 h1         1 EFO       0.060700
    124 H68         -6.7390     0.2890     2.9230 hc         1 EFO       0.055200
    125 H69         -6.9290    -1.4530     3.0090 hc         1 EFO       0.055200
    126 H70         -4.3050     0.0570     2.6800 h1         1 EFO       0.044700
    127 H71         -5.4680    -1.4130     5.0960 hc         1 EFO       0.040033
    128 H72         -3.8470    -0.7140     5.0050 hc         1 EFO       0.040033
    129 H73         -5.2600     0.3330     4.9360 hc         1 EFO       0.040033
    130 H74         -3.4180    -2.0070     2.8710 ho         1 EFO       0.439000
@<TRIPOS>BOND
     1     1     2 1   
     2     1    57 1   
     3     1    58 1   
     4     1    59 1   
     5     2     3 1   
     6     2    46 1   
     7     2    60 1   
     8     3     4 1   
     9     3     6 1   
    10     3    61 1   
    11     4     5 1   
    12     4    44 1   
    13     4    62 1   
    14     5    63 1   
    15     5    64 1   
    16     5    65 1   
    17     6     7 1   
    18     7     8 2   
    19     7     9 1   
    20     9    10 2   
    21     9    66 1   
    22    10    11 1   
    23    10    67 1   
    24    11    12 1   
    25    11    13 1   
    26    11    68 1   
    27    12    69 1   
    28    12    70 1   
    29    12    71 1   
    30    13    14 1   
    31    13    15 1   
    32    13    72 1   
    33    14    73 1   
    34    15    16 1   
    35    15    17 1   
    36    15    74 1   
    37    16    75 1   
    38    16    76 1   
    39    16    77 1   
    40    17    18 2   
    41    17    19 1   
    42    19    20 1   
    43    19    21 1   
    44    19    78 1   
    45    20    79 1   
    46    20    80 1   
    47    20    81 1   
    48    21    22 1   
    49    21    23 1   
    50    21    82 1   
    51    22    83 1   
    52    23    24 1   
    53    23    25 1   
    54    23    84 1   
    55    24    85 1   
    56    24    86 1   
    57    24    87 1   
    58    25    26 2   
    59    25    27 1   
    60    27    28 1   
    61    27    29 1   
    62    27    30 1   
    63    28    88 1   
    64    28    89 1   
    65    28    90 1   
    66    29    91 1   
    67    30    31 1   
    68    30    32 1   
    69    30    92 1   
    70    31    93 1   
    71    32    33 1   
    72    32    34 1   
    73    32    94 1   
    74    33    95 1   
    75    33    96 1   
    76    33    97 1   
    77    34    35 1   
    78    34    98 1   
    79    34    99 1   
    80    35    36 2   
    81    35   100 1   
    82    36    37 1   
    83    36   101 1   
    84    37    38 2   
    85    37   102 1   
    86    38    39 1   
    87    38   103 1   
    88    39    40 1   
    89    39    42 1   
    90    39   104 1   
    91    40    41 1   
    92    40   105 1   
    93    40   106 1   
    94    41   107 1   
    95    41   108 1   
    96    41   109 1   
    97    42    43 1   
    98    42   110 1   
    99    42   111 1   
   100    43    44 1   
   101    43   112 1   
   102    43   113 1   
   103    44    45 1   
   104    44   114 1   
   105    45    46 1   
   106    46    47 1   
   107    46    48 1   
   108    47    52 1   
   109    48    49 1   
   110    48   115 1   
   111    48   116 1   
   112    49    50 1   
   113    49   117 1   
   114    49   118 1   
   115    50    51 1   
   116    50    52 1   
   117    50   119 1   
   118    51   120 1   
   119    51   121 1   
   120    51   122 1   
   121    52    53 1   
   122    52   123 1   
   123    53    54 1   
   124    53   124 1   
   125    53   125 1   
   126    54    55 1   
   127    54    56 1   
   128    54   126 1   
   129    55   127 1   
   130    55   128 1   
   131    55   129 1   
   132    56   130 1   
@<TRIPOS>SUBSTRUCTURE
     1 EFO         1 TEMP              0 ****  ****    0 ROOT
