@<TRIPOS>MOLECULE
EFP
   47    49     1     0     0
SMALL
abcg2


@<TRIPOS>ATOM
      1 C1          -1.2310    30.8500     8.3980 cy         1 EFP       0.064300
      2 N3           0.1260    30.7880     7.8950 na         1 EFP      -0.159500
      3 C4           1.0510    29.7890     8.1410 cc         1 EFP      -0.232000
      4 C6           2.1740    30.1730     7.4500 cd         1 EFP       0.358900
      5 N7           3.4210    29.5600     7.3350 ns         1 EFP      -0.458400
      6 C9           3.7970    28.3980     7.9240 c          1 EFP       0.604100
      7 C10          5.2000    27.9210     7.5800 c3         1 EFP      -0.095100
      8 C13          5.1450    26.7960     6.5730 ca         1 EFP      -0.124300
      9 C14          5.0890    27.0630     5.2080 ca         1 EFP      -0.059000
     10 C16          4.9960    26.0410     4.2670 ca         1 EFP      -0.167500
     11 C18          4.9570    24.7140     4.6950 ca         1 EFP       0.141100
     12 O19          4.8720    23.6390     3.8630 os         1 EFP      -0.349100
     13 C20          4.8180    23.8780     2.4580 c3         1 EFP       0.148900
     14 C24          5.0130    24.4300     6.0630 ca         1 EFP      -0.167500
     15 C26          5.1050    25.4610     6.9840 ca         1 EFP      -0.059000
     16 O28          3.0510    27.7560     8.6590 o          1 EFP      -0.600100
     17 N29          1.9630    31.3600     6.7960 nd         1 EFP      -0.712000
     18 C30          0.7190    31.6980     7.0880 cc         1 EFP       0.414400
     19 C32         -1.4680    30.6430     9.9110 cy         1 EFP      -0.115400
     20 C35         -2.7430    29.8410     9.5420 cy         1 EFP       0.093700
     21 N37         -3.0420    28.6510    10.2930 ns         1 EFP      -0.495900
     22 C39         -4.1720    28.4610    11.0070 c          1 EFP       0.601100
     23 C40         -4.2860    27.1330    11.7170 c3         1 EFP      -0.175100
     24 O44         -5.0680    29.3050    11.0810 o          1 EFP      -0.608100
     25 C45         -2.1790    29.6620     8.1120 cy         1 EFP      -0.115400
     26 H1          -1.6540    31.7900     8.0510 h1         1 EFP       0.076700
     27 H4           0.8430    28.9370     8.7560 h4         1 EFP       0.180000
     28 HN7          4.0840    30.0430     6.7470 hn         1 EFP       0.333500
     29 H10          5.7990    28.7460     7.1910 hc         1 EFP       0.068200
     30 H10A         5.6560    27.5750     8.5070 hc         1 EFP       0.068200
     31 H14          5.1190    28.0900     4.8630 ha         1 EFP       0.115000
     32 H16          4.9600    26.2890     3.2160 ha         1 EFP       0.123500
     33 H20          4.7570    22.8980     1.9910 h1         1 EFP       0.042033
     34 H20A         3.9360    24.4670     2.1920 h1         1 EFP       0.042033
     35 H20B         5.7170    24.3940     2.1120 h1         1 EFP       0.042033
     36 H24          4.9890    23.3970     6.3860 ha         1 EFP       0.123500
     37 H26          5.1500    25.2260     8.0400 ha         1 EFP       0.115000
     38 H30          0.2060    32.5820     6.7430 h5         1 EFP       0.056100
     39 H32         -0.7110    29.9860    10.3400 hc         1 EFP       0.070450
     40 H32A        -1.5810    31.5300    10.5310 hc         1 EFP       0.070450
     41 H35         -3.6290    30.4700     9.5530 h1         1 EFP       0.097700
     42 HN37        -2.3460    27.9190    10.2980 hn         1 EFP       0.312500
     43 H40         -5.1710    26.6140    11.3450 hc         1 EFP       0.063033
     44 H40A        -3.4140    26.4960    11.5790 hc         1 EFP       0.063033
     45 H40B        -4.4330    27.3160    12.7830 hc         1 EFP       0.063033
     46 H45         -2.8660    29.7520     7.2730 hc         1 EFP       0.070450
     47 H45A        -1.6180    28.7300     8.0320 hc         1 EFP       0.070450
@<TRIPOS>BOND
     1     1     2 1   
     2     1    19 1   
     3     1    25 1   
     4     1    26 1   
     5     2     3 1   
     6     2    18 1   
     7     3     4 2   
     8     3    27 1   
     9     4     5 1   
    10     4    17 1   
    11     5     6 1   
    12     5    28 1   
    13     6     7 1   
    14     6    16 2   
    15     7     8 1   
    16     7    29 1   
    17     7    30 1   
    18     8     9 ar  
    19     8    15 ar  
    20     9    10 ar  
    21     9    31 1   
    22    10    11 ar  
    23    10    32 1   
    24    11    12 1   
    25    11    14 ar  
    26    12    13 1   
    27    13    33 1   
    28    13    34 1   
    29    13    35 1   
    30    14    15 ar  
    31    14    36 1   
    32    15    37 1   
    33    17    18 2   
    34    18    38 1   
    35    19    20 1   
    36    19    39 1   
    37    19    40 1   
    38    20    21 1   
    39    20    25 1   
    40    20    41 1   
    41    21    22 1   
    42    21    42 1   
    43    22    23 1   
    44    22    24 2   
    45    23    43 1   
    46    23    44 1   
    47    23    45 1   
    48    25    46 1   
    49    25    47 1   
@<TRIPOS>SUBSTRUCTURE
     1 EFP         1 TEMP              0 ****  ****    0 ROOT
