@<TRIPOS>MOLECULE
EFP
   47    49     1     0     0
SMALL
No Charge or Current Charge


@<TRIPOS>ATOM
      1 C1          -1.3190    30.5200     8.3970 cy         1 EFP       0.064300
      2 N3           0.0280    30.5430     7.8530 na         1 EFP      -0.159500
      3 C4           1.0190    29.6090     8.0690 cc         1 EFP      -0.232000
      4 C6           2.1030    30.0530     7.3550 cd         1 EFP       0.358900
      5 N7           3.3160    29.4260     7.2830 ns         1 EFP      -0.458400
      6 C9           3.7390    28.2540     7.8740 c          1 EFP       0.604100
      7 C10          5.1860    27.8600     7.5440 c3         1 EFP      -0.095100
      8 C13          5.2270    26.7750     6.4690 ca         1 EFP      -0.124300
      9 C14          5.3370    27.1240     5.1090 ca         1 EFP      -0.059000
     10 C16          5.3690    26.1250     4.1190 ca         1 EFP      -0.167500
     11 C18          5.2910    24.7640     4.4860 ca         1 EFP       0.141100
     12 O19          5.3180    23.7400     3.5600 os         1 EFP      -0.349100
     13 C20          5.4290    23.9870     2.1460 c3         1 EFP       0.148900
     14 C24          5.1800    24.4190     5.8420 ca         1 EFP      -0.167500
     15 C26          5.1470    25.4170     6.8310 ca         1 EFP      -0.059000
     16 O28          3.0320    27.5650     8.5950 o          1 EFP      -0.600100
     17 N29          1.8150    31.2250     6.7090 nd         1 EFP      -0.712000
     18 C30          0.5570    31.5080     7.0200 cc         1 EFP       0.414400
     19 C32         -1.5430    30.3330     9.9340 cy         1 EFP      -0.115400
     20 C35         -2.9290    29.7250     9.5410 cy         1 EFP       0.093700
     21 N37         -3.5420    28.7540    10.4030 ns         1 EFP      -0.495900
     22 C39         -4.2540    29.0700    11.5380 c          1 EFP       0.601100
     23 C40         -4.8050    27.8720    12.3000 c3         1 EFP      -0.175100
     24 O44         -4.4330    30.2220    11.9050 o          1 EFP      -0.608100
     25 C45         -2.2080    29.2410     8.2410 cy         1 EFP      -0.115400
     26 H1          -1.8180    31.4200     8.0130 h1         1 EFP       0.076700
     27 H4           0.8770    28.7350     8.6900 h4         1 EFP       0.180000
     28 HN7          4.0180    29.8730     6.7120 hn         1 EFP       0.333500
     29 H10          5.7380    28.7380     7.1870 hc         1 EFP       0.068200
     30 H10A         5.6610    27.4860     8.4580 hc         1 EFP       0.068200
     31 H14          5.3970    28.1690     4.8150 ha         1 EFP       0.115000
     32 H16          5.4550    26.4260     3.0800 ha         1 EFP       0.123500
     33 H20          5.4320    23.0390     1.5940 h1         1 EFP       0.042033
     34 H20A         4.5820    24.5870     1.7870 h1         1 EFP       0.042033
     35 H20B         6.3610    24.5180     1.9150 h1         1 EFP       0.042033
     36 H24          5.1180    23.3720     6.1280 ha         1 EFP       0.123500
     37 H26          5.0580    25.1330     7.8770 ha         1 EFP       0.115000
     38 H30         -0.0130    32.3680     6.6870 h5         1 EFP       0.056100
     39 H32         -0.8560    29.6280    10.4180 hc         1 EFP       0.070450
     40 H32A        -1.5760    31.2520    10.5280 hc         1 EFP       0.070450
     41 H35         -3.6770    30.5020     9.3280 h1         1 EFP       0.097700
     42 HN37        -3.4580    27.7670    10.1890 hn         1 EFP       0.312500
     43 H40         -5.4140    27.2660    11.6210 hc         1 EFP       0.063033
     44 H40A        -3.9800    27.1940    12.5430 hc         1 EFP       0.063033
     45 H40B        -5.3670    28.1640    13.1950 hc         1 EFP       0.063033
     46 H45         -2.8270    29.1980     7.3390 hc         1 EFP       0.070450
     47 H45A        -1.6690    28.2920     8.3420 hc         1 EFP       0.070450
@<TRIPOS>BOND
     1     1     2 1   
     2     1    19 1   
     3     1    25 1   
     4     1    26 1   
     5     2     3 1   
     6     2    18 1   
     7     3     4 2   
     8     3    27 1   
     9     4     5 1   
    10     4    17 1   
    11     5     6 1   
    12     5    28 1   
    13     6     7 1   
    14     6    16 2   
    15     7     8 1   
    16     7    29 1   
    17     7    30 1   
    18     8     9 ar  
    19     8    15 ar  
    20     9    10 ar  
    21     9    31 1   
    22    10    11 ar  
    23    10    32 1   
    24    11    12 1   
    25    11    14 ar  
    26    12    13 1   
    27    13    33 1   
    28    13    34 1   
    29    13    35 1   
    30    14    15 ar  
    31    14    36 1   
    32    15    37 1   
    33    17    18 2   
    34    18    38 1   
    35    19    20 1   
    36    19    39 1   
    37    19    40 1   
    38    20    21 1   
    39    20    25 1   
    40    20    41 1   
    41    21    22 1   
    42    21    42 1   
    43    22    23 1   
    44    22    24 2   
    45    23    43 1   
    46    23    44 1   
    47    23    45 1   
    48    25    46 1   
    49    25    47 1   
@<TRIPOS>SUBSTRUCTURE
     1 EFP         1 TEMP              0 ****  ****    0 ROOT
