@<TRIPOS>MOLECULE
EFQ
   41    43     1     0     0
SMALL
abcg2


@<TRIPOS>ATOM
      1 C1          -1.3140    31.7400     8.5280 cy         1 EFQ       0.065300
      2 N1           0.0480    31.6240     8.0490 na         1 EFQ      -0.158500
      3 O1          -3.1660    29.7120    10.4870 oh         1 EFQ      -0.645000
      4 C2           0.9450    30.6140     8.3460 cc         1 EFQ      -0.226000
      5 N2           1.9130    32.1080     6.9550 nd         1 EFQ      -0.713000
      6 O2           2.8730    28.5200     8.9200 o          1 EFQ      -0.596100
      7 C3           0.6740    32.4880     7.2160 cc         1 EFQ       0.409400
      8 O3           4.3780    24.6980     3.6940 os         1 EFQ      -0.349100
      9 C4          -2.2750    30.5450     8.3280 cy         1 EFQ      -0.115900
     10 C5          -1.5810    31.6590    10.0490 cy         1 EFQ      -0.115900
     11 C6           2.0850    30.9420     7.6550 cd         1 EFQ       0.355900
     12 C7          -2.8630    30.8590     9.7130 cy         1 EFQ       0.153300
     13 C8           3.6400    29.1180     8.1690 c          1 EFQ       0.602100
     14 C9           5.0110    28.5690     7.8020 c3         1 EFQ      -0.096100
     15 C10          4.8840    27.5490     6.6930 ca         1 EFQ      -0.126300
     16 C11          4.6150    26.2070     6.9770 ca         1 EFQ      -0.059500
     17 C12          4.9840    27.9290     5.3590 ca         1 EFQ      -0.059500
     18 C13          4.4510    25.2800     5.9620 ca         1 EFQ      -0.167500
     19 C14          4.8230    27.0110     4.3240 ca         1 EFQ      -0.167500
     20 C15          4.5510    25.6770     4.6250 ca         1 EFQ       0.141100
     21 C16          4.4650    25.0560     2.3160 c3         1 EFQ       0.148900
     22 H1          -1.7200    32.6540     8.1000 h1         1 EFQ       0.070700
     23 HO1         -3.6060    29.9950    11.2980 ho         1 EFQ       0.448000
     24 H2           0.7060    29.7910     8.9900 h4         1 EFQ       0.186000
     25 H3           0.1880    33.3700     6.8320 h5         1 EFQ       0.054100
     26 HN3          3.9930    30.7280     6.9650 hn         1 EFQ       0.332500
     27 H4          -2.9360    30.5620     7.4630 hc         1 EFQ       0.075450
     28 H4A         -1.7300    29.6010     8.3620 hc         1 EFQ       0.075450
     29 H5          -0.8550    31.0070    10.5370 hc         1 EFQ       0.075450
     30 H5A         -1.6730    32.5950    10.5970 hc         1 EFQ       0.075450
     31 H7          -3.7340    31.5150     9.6430 h1         1 EFQ       0.040700
     32 H9           5.6740    29.3780     7.4940 hc         1 EFQ       0.068200
     33 H9A          5.4240    28.1070     8.6990 hc         1 EFQ       0.068200
     34 H11          4.5350    25.8850     8.0080 ha         1 EFQ       0.116000
     35 H12          5.1950    28.9630     5.1120 ha         1 EFQ       0.116000
     36 H13          4.2480    24.2410     6.1860 ha         1 EFQ       0.123500
     37 H14          4.9130    27.3450     3.3000 ha         1 EFQ       0.123500
     38 H16          4.2930    24.1390     1.7580 h1         1 EFQ       0.042033
     39 H16A         3.7030    25.7940     2.0520 h1         1 EFQ       0.042033
     40 H16B         5.4540    25.4530     2.0750 h1         1 EFQ       0.042033
     41 N3           3.3130    30.2880     7.5680 ns         1 EFQ      -0.458400
@<TRIPOS>BOND
     1     1     2 1   
     2     1     9 1   
     3     1    10 1   
     4     1    22 1   
     5     2     4 1   
     6     2     7 1   
     7     3    12 1   
     8     3    23 1   
     9     4    11 2   
    10     4    24 1   
    11     5     7 2   
    12     5    11 1   
    13     6    13 2   
    14     7    25 1   
    15     8    20 1   
    16     8    21 1   
    17     9    12 1   
    18     9    27 1   
    19     9    28 1   
    20    10    12 1   
    21    10    29 1   
    22    10    30 1   
    23    11    41 1   
    24    12    31 1   
    25    13    14 1   
    26    13    41 1   
    27    14    15 1   
    28    14    32 1   
    29    14    33 1   
    30    15    16 ar  
    31    15    17 ar  
    32    16    18 ar  
    33    16    34 1   
    34    17    19 ar  
    35    17    35 1   
    36    18    20 ar  
    37    18    36 1   
    38    19    20 ar  
    39    19    37 1   
    40    21    38 1   
    41    21    39 1   
    42    21    40 1   
    43    26    41 1   
@<TRIPOS>SUBSTRUCTURE
     1 EFQ         1 TEMP              0 ****  ****    0 ROOT
