@<TRIPOS>MOLECULE
EFQ
   41    43     1     0     0
SMALL
No Charge or Current Charge


@<TRIPOS>ATOM
      1 C1          -1.3450    31.7550     8.6780 cy         1 EFQ       0.065300
      2 N1          -0.0020    31.6780     8.1280 na         1 EFQ      -0.158500
      3 O1          -3.5900    30.0780    10.6230 oh         1 EFQ      -0.645000
      4 C2           0.9040    30.6550     8.3100 cc         1 EFQ      -0.226000
      5 N2           1.8340    32.2390     6.9960 nd         1 EFQ      -0.713000
      6 O2           2.7350    28.4300     8.7630 o          1 EFQ      -0.596100
      7 C3           0.6060    32.6190     7.3230 cc         1 EFQ       0.409400
      8 O3           4.6640    24.5740     3.6050 os         1 EFQ      -0.349100
      9 C4          -2.3430    30.5640     8.4880 cy         1 EFQ      -0.115900
     10 C5          -1.5800    31.5460    10.2130 cy         1 EFQ      -0.115900
     11 C6           2.0210    31.0260     7.6040 cd         1 EFQ       0.355900
     12 C7          -3.0120    31.0750     9.8030 cy         1 EFQ       0.153300
     13 C8           3.4970    29.0780     8.0590 c          1 EFQ       0.602100
     14 C9           4.9030    28.5700     7.7090 c3         1 EFQ      -0.096100
     15 C10          4.8460    27.5180     6.6030 ca         1 EFQ      -0.126300
     16 C11          4.6510    26.1610     6.9250 ca         1 EFQ      -0.059500
     17 C12          4.9810    27.8960     5.2530 ca         1 EFQ      -0.059500
     18 C13          4.5940    25.1940     5.9060 ca         1 EFQ      -0.167500
     19 C14          4.9240    26.9280     4.2340 ca         1 EFQ      -0.167500
     20 C15          4.7290    25.5680     4.5600 ca         1 EFQ       0.141100
     21 C16          4.7910    24.8530     2.1990 c3         1 EFQ       0.148900
     22 H1          -1.7640    32.7050     8.3230 h1         1 EFQ       0.070700
     23 HO1         -3.8400    30.5040    11.4740 ho         1 EFQ       0.448000
     24 H2           0.6900    29.7780     8.9040 h4         1 EFQ       0.186000
     25 H3           0.1120    33.5350     7.0200 h5         1 EFQ       0.054100
     26 HN3          3.9120    30.7010     6.9450 hn         1 EFQ       0.332500
     27 H4          -2.9660    30.6010     7.5890 hc         1 EFQ       0.075450
     28 H4A         -1.8910    29.5680     8.5610 hc         1 EFQ       0.075450
     29 H5          -0.9550    30.7720    10.6720 hc         1 EFQ       0.075450
     30 H5A         -1.5300    32.4490    10.8300 hc         1 EFQ       0.075450
     31 H7          -3.7200    31.8990     9.6440 h1         1 EFQ       0.040700
     32 H9           5.5280    29.4060     7.3750 hc         1 EFQ       0.068200
     33 H9A          5.3470    28.1290     8.6090 hc         1 EFQ       0.068200
     34 H11          4.5410    25.8550     7.9630 ha         1 EFQ       0.116000
     35 H12          5.1300    28.9410     4.9880 ha         1 EFQ       0.116000
     36 H13          4.4430    24.1490     6.1620 ha         1 EFQ       0.123500
     37 H14          5.0310    27.2510     3.2030 ha         1 EFQ       0.123500
     38 H16          4.7100    23.9250     1.6190 h1         1 EFQ       0.042033
     39 H16A         3.9980    25.5330     1.8630 h1         1 EFQ       0.042033
     40 H16B         5.7650    25.3080     1.9770 h1         1 EFQ       0.042033
     41 N3           3.1750    30.2990     7.5060 ns         1 EFQ      -0.458400
@<TRIPOS>BOND
     1     1     2 1   
     2     1     9 1   
     3     1    10 1   
     4     1    22 1   
     5     2     4 1   
     6     2     7 1   
     7     3    12 1   
     8     3    23 1   
     9     4    11 2   
    10     4    24 1   
    11     5     7 2   
    12     5    11 1   
    13     6    13 2   
    14     7    25 1   
    15     8    20 1   
    16     8    21 1   
    17     9    12 1   
    18     9    27 1   
    19     9    28 1   
    20    10    12 1   
    21    10    29 1   
    22    10    30 1   
    23    11    41 1   
    24    12    31 1   
    25    13    14 1   
    26    13    41 1   
    27    14    15 1   
    28    14    32 1   
    29    14    33 1   
    30    15    16 ar  
    31    15    17 ar  
    32    16    18 ar  
    33    16    34 1   
    34    17    19 ar  
    35    17    35 1   
    36    18    20 ar  
    37    18    36 1   
    38    19    20 ar  
    39    19    37 1   
    40    21    38 1   
    41    21    39 1   
    42    21    40 1   
    43    26    41 1   
@<TRIPOS>SUBSTRUCTURE
     1 EFQ         1 TEMP              0 ****  ****    0 ROOT
