@<TRIPOS>MOLECULE
EFR
   36    36     1     0     0
SMALL
abcg2


@<TRIPOS>ATOM
      1 N1          31.8480    42.5660    26.9200 n          1 EFR      -0.399800
      2 C4          30.1700    42.0670    28.6340 c6         1 EFR      -0.103900
      3 C5          29.2940    43.2100    28.1210 c6         1 EFR      -0.049700
      4 C6          32.3800    41.6960    26.0330 c          1 EFR       0.616100
      5 C7          32.9850    40.3860    26.5290 c3         1 EFR      -0.128700
      6 C8          32.4990    39.2390    25.6520 c3         1 EFR       0.094600
      7 C10         27.8020    42.9190    28.2940 c3         1 EFR      -0.164400
      8 C1          29.6120    43.4980    26.6540 c6         1 EFR      -0.103900
      9 C11         27.3870    42.6100    29.7180 c          1 EFR       0.605100
     10 C2          31.1040    43.7210    26.4400 c6         1 EFR       0.096500
     11 C3          31.6400    42.3390    28.3410 c6         1 EFR       0.096500
     12 C9          34.5100    40.4870    26.4870 c3         1 EFR      -0.085100
     13 N2          27.6360    43.5840    30.6060 nt         1 EFR      -0.613000
     14 O1          32.4310    41.9470    24.8350 o          1 EFR      -0.609100
     15 O2          26.8700    41.5470    30.0350 o          1 EFR      -0.603100
     16 S1          30.6950    39.0350    25.8550 sh         1 EFR      -0.469800
     17 H1          30.0440    41.9340    29.7120 hc         1 EFR       0.058950
     18 H2          29.8750    41.1270    28.1540 hc         1 EFR       0.058950
     19 H3          29.5550    44.1110    28.6900 hc         1 EFR       0.035700
     20 H4          32.6890    40.1600    27.5530 hc         1 EFR       0.066700
     21 H5          33.0050    38.3200    25.9470 h1         1 EFR       0.072200
     22 H6          32.7190    39.4330    24.6040 h1         1 EFR       0.072200
     23 H7          27.2240    43.7790    27.9400 hc         1 EFR       0.070200
     24 H8          27.5230    42.0660    27.6720 hc         1 EFR       0.070200
     25 H9          29.0580    44.3780    26.3170 hc         1 EFR       0.058950
     26 H10         29.2870    42.6560    26.0340 hc         1 EFR       0.058950
     27 H11         31.3270    43.8920    25.3920 h1         1 EFR       0.055450
     28 H12         31.4380    44.6030    26.9950 h1         1 EFR       0.055450
     29 H13         32.2670    41.5350    28.7120 h1         1 EFR       0.055450
     30 H14         31.9590    43.2410    28.8720 h1         1 EFR       0.055450
     31 H15         34.8690    41.2860    27.1360 hc         1 EFR       0.044700
     32 H16         34.9620    39.5550    26.8260 hc         1 EFR       0.044700
     33 H17         34.8640    40.6870    25.4750 hc         1 EFR       0.044700
     34 H18         27.3950    43.4660    31.5770 hn         1 EFR       0.311000
     35 H19         28.0380    44.4650    30.3370 hn         1 EFR       0.311000
     36 H20         30.4410    38.4390    24.6860 hs         1 EFR       0.222800
@<TRIPOS>BOND
     1     1     4 1   
     2     1    10 1   
     3     1    11 1   
     4     2     3 1   
     5     2    11 1   
     6     2    17 1   
     7     2    18 1   
     8     3     7 1   
     9     3     8 1   
    10     3    19 1   
    11     4     5 1   
    12     4    14 2   
    13     5     6 1   
    14     5    12 1   
    15     5    20 1   
    16     6    16 1   
    17     6    21 1   
    18     6    22 1   
    19     7     9 1   
    20     7    23 1   
    21     7    24 1   
    22     8    10 1   
    23     8    25 1   
    24     8    26 1   
    25     9    13 1   
    26     9    15 2   
    27    10    27 1   
    28    10    28 1   
    29    11    29 1   
    30    11    30 1   
    31    12    31 1   
    32    12    32 1   
    33    12    33 1   
    34    13    34 1   
    35    13    35 1   
    36    16    36 1   
@<TRIPOS>SUBSTRUCTURE
     1 EFR         1 TEMP              0 ****  ****    0 ROOT
