@<TRIPOS>MOLECULE
EFR
   36    36     1     0     0
SMALL
No Charge or Current Charge


@<TRIPOS>ATOM
      1 N1          31.2680    41.9300    26.6230 n          1 EFR      -0.399800
      2 C4          29.8000    41.8430    28.7120 c6         1 EFR      -0.103900
      3 C5          29.1260    43.1770    28.3170 c6         1 EFR      -0.049700
      4 C6          32.4140    41.5410    25.8860 c          1 EFR       0.616100
      5 C7          33.0930    40.1870    26.2030 c3         1 EFR      -0.128700
      6 C8          33.3490    39.3700    24.9180 c3         1 EFR       0.094600
      7 C10         27.6930    43.3300    28.9170 c3         1 EFR      -0.164400
      8 C1          29.1000    43.2690    26.7760 c6         1 EFR      -0.103900
      9 C11         27.6730    43.4280    30.4460 c          1 EFR       0.605100
     10 C2          30.5170    43.1400    26.1720 c6         1 EFR       0.096500
     11 C3          31.2150    41.7110    28.1020 c6         1 EFR       0.096500
     12 C9          34.3980    40.4120    27.0050 c3         1 EFR      -0.085100
     13 N2          27.7760    44.6700    30.9640 nt         1 EFR      -0.613000
     14 O1          32.8500    42.2580    24.9910 o          1 EFR      -0.609100
     15 O2          27.5800    42.4600    31.1810 o          1 EFR      -0.603100
     16 S1          31.7900    38.8610    24.0520 sh         1 EFR      -0.469800
     17 H1          29.8760    41.7580    29.8040 hc         1 EFR       0.058950
     18 H2          29.1820    40.9990    28.3770 hc         1 EFR       0.058950
     19 H3          29.7270    44.0110    28.7090 hc         1 EFR       0.035700
     20 H4          32.4310    39.5930    26.8400 hc         1 EFR       0.066700
     21 H5          33.9020    38.4560    25.1740 h1         1 EFR       0.072200
     22 H6          33.9680    39.9500    24.2210 h1         1 EFR       0.072200
     23 H7          27.2750    44.2620    28.5160 hc         1 EFR       0.070200
     24 H8          27.0690    42.4830    28.6080 hc         1 EFR       0.070200
     25 H9          28.6570    44.2230    26.4590 hc         1 EFR       0.058950
     26 H10         28.4590    42.4760    26.3660 hc         1 EFR       0.058950
     27 H11         30.4260    43.1260    25.0760 h1         1 EFR       0.055450
     28 H12         31.1020    44.0320    26.4370 h1         1 EFR       0.055450
     29 H13         31.6050    40.7230    28.3730 h1         1 EFR       0.055450
     30 H14         31.8750    42.4500    28.5800 h1         1 EFR       0.055450
     31 H15         34.1950    40.9660    27.9300 hc         1 EFR       0.044700
     32 H16         34.8560    39.4540    27.2780 hc         1 EFR       0.044700
     33 H17         35.1250    40.9850    26.4160 hc         1 EFR       0.044700
     34 H18         27.7720    44.7890    31.9660 hn         1 EFR       0.311000
     35 H19         27.8610    45.4680    30.3510 hn         1 EFR       0.311000
     36 H20         32.3950    38.1940    23.0360 hs         1 EFR       0.222800
@<TRIPOS>BOND
     1     1     4 1   
     2     1    10 1   
     3     1    11 1   
     4     2     3 1   
     5     2    11 1   
     6     2    17 1   
     7     2    18 1   
     8     3     7 1   
     9     3     8 1   
    10     3    19 1   
    11     4     5 1   
    12     4    14 2   
    13     5     6 1   
    14     5    12 1   
    15     5    20 1   
    16     6    16 1   
    17     6    21 1   
    18     6    22 1   
    19     7     9 1   
    20     7    23 1   
    21     7    24 1   
    22     8    10 1   
    23     8    25 1   
    24     8    26 1   
    25     9    13 1   
    26     9    15 2   
    27    10    27 1   
    28    10    28 1   
    29    11    29 1   
    30    11    30 1   
    31    12    31 1   
    32    12    32 1   
    33    12    33 1   
    34    13    34 1   
    35    13    35 1   
    36    16    36 1   
@<TRIPOS>SUBSTRUCTURE
     1 EFR         1 TEMP              0 ****  ****    0 ROOT
