@<TRIPOS>MOLECULE
EFT
   39    41     1     0     0
SMALL
No Charge or Current Charge


@<TRIPOS>ATOM
      1 C1           3.5700    -1.7400    -0.5450 ca         1 EFT      -0.228000
      2 C2           4.6020    -1.0170     0.0970 ca         1 EFT       0.176100
      3 C3           4.3570     0.2700     0.6150 ca         1 EFT      -0.181000
      4 C4           2.2800    -1.1820    -0.6750 ca         1 EFT       0.005000
      5 N5           2.5590     2.0110     0.8810 na         1 EFT      -0.058400
      6 N6           1.2010     2.1160     0.5280 nc         1 EFT      -0.502100
      7 C7           0.9130     0.9600    -0.0990 cd         1 EFT       0.355900
      8 C8           2.0770     0.1020    -0.1470 ca         1 EFT      -0.257900
      9 C9           3.0680     0.7960     0.4700 ca         1 EFT       0.001800
     10 C10         -0.4700     0.6660    -0.6290 c3         1 EFT       0.001100
     11 C11         -1.5120     0.5470     0.5250 c3         1 EFT      -0.065400
     12 C12         -0.8720     1.6370    -1.6540 c1         1 EFT       0.308900
     13 N13         -1.2080     2.3850    -2.4830 n1         1 EFT      -0.460000
     14 O14          5.8420    -1.5640     0.2170 oh         1 EFT      -0.532100
     15 C15         -2.9670     0.1150     0.1390 c6         1 EFT      -0.063700
     16 C16         -3.0240    -1.2920    -0.5270 c6         1 EFT      -0.071400
     17 C17         -4.4770    -1.7060    -0.8670 c6         1 EFT      -0.073400
     18 C18         -5.3860    -1.6560     0.3830 c6         1 EFT      -0.074400
     19 C19         -5.3440    -0.2570     1.0420 c6         1 EFT      -0.073400
     20 C20         -3.8920     0.1530     1.3890 c6         1 EFT      -0.071400
     21 H1           3.7610    -2.7330    -0.9430 ha         1 EFT       0.116000
     22 H2           5.1440     0.8320     1.1110 ha         1 EFT       0.138000
     23 H3           1.4790    -1.7320    -1.1660 ha         1 EFT       0.119000
     24 H4           3.0590     2.7490     1.3740 hn         1 EFT       0.381000
     25 H5          -0.4220    -0.3020    -1.1340 hc         1 EFT       0.079700
     26 H6          -1.1170    -0.1640     1.2620 hc         1 EFT       0.058700
     27 H7          -1.5550     1.5130     1.0450 hc         1 EFT       0.058700
     28 H8           5.8250    -2.4530    -0.1970 ho         1 EFT       0.469000
     29 H9          -3.3450     0.8570    -0.5800 hc         1 EFT       0.056700
     30 H10         -2.4340    -1.3050    -1.4530 hc         1 EFT       0.037700
     31 H11         -2.5750    -2.0400     0.1410 hc         1 EFT       0.037700
     32 H12         -4.8790    -1.0400    -1.6430 hc         1 EFT       0.040200
     33 H13         -4.4860    -2.7190    -1.2930 hc         1 EFT       0.040200
     34 H14         -6.4190    -1.9080     0.1050 hc         1 EFT       0.038200
     35 H15         -5.0630    -2.4170     1.1070 hc         1 EFT       0.038200
     36 H16         -5.7870     0.4850     0.3640 hc         1 EFT       0.040200
     37 H17         -5.9590    -0.2560     1.9520 hc         1 EFT       0.040200
     38 H18         -3.4980    -0.5190     2.1650 hc         1 EFT       0.037700
     39 H19         -3.8940     1.1620     1.8240 hc         1 EFT       0.037700
@<TRIPOS>BOND
     1     1     2 ar  
     2     1     4 ar  
     3     1    21 1   
     4     2     3 ar  
     5     2    14 1   
     6     3     9 ar  
     7     3    22 1   
     8     4     8 ar  
     9     4    23 1   
    10     5     6 1   
    11     5     9 1   
    12     5    24 1   
    13     6     7 2   
    14     7     8 1   
    15     7    10 1   
    16     8     9 ar  
    17    10    11 1   
    18    10    12 1   
    19    10    25 1   
    20    11    15 1   
    21    11    26 1   
    22    11    27 1   
    23    12    13 3   
    24    14    28 1   
    25    15    16 1   
    26    15    20 1   
    27    15    29 1   
    28    16    17 1   
    29    16    30 1   
    30    16    31 1   
    31    17    18 1   
    32    17    32 1   
    33    17    33 1   
    34    18    19 1   
    35    18    34 1   
    36    18    35 1   
    37    19    20 1   
    38    19    36 1   
    39    19    37 1   
    40    20    38 1   
    41    20    39 1   
@<TRIPOS>SUBSTRUCTURE
     1 EFT         1 TEMP              0 ****  ****    0 ROOT
