@<TRIPOS>MOLECULE
EFT
   39    41     1     0     0
SMALL
abcg2


@<TRIPOS>ATOM
      1 C1           3.6510    -1.6560    -0.7170 ca         1 EFT      -0.228000
      2 C2           4.6470    -0.9290    -0.0180 ca         1 EFT       0.176100
      3 C3           4.3610     0.2660     0.6110 ca         1 EFT      -0.181000
      4 C4           2.3600    -1.1960    -0.7930 ca         1 EFT       0.005000
      5 N5           2.4410     1.8290     1.0050 na         1 EFT      -0.058400
      6 N6           1.1440     1.8880     0.6880 nc         1 EFT      -0.502100
      7 C7           0.8770     0.8150    -0.0090 cd         1 EFT       0.355900
      8 C8           2.0390     0.0130    -0.1650 ca         1 EFT      -0.257900
      9 C9           3.0430     0.7200     0.5210 ca         1 EFT       0.001800
     10 C10         -0.5050     0.5340    -0.5230 c3         1 EFT       0.001100
     11 C11         -1.5600     0.5030     0.5970 c3         1 EFT      -0.065400
     12 C12         -0.8630     1.5230    -1.5400 c1         1 EFT       0.308900
     13 N13         -1.1440     2.3070    -2.3330 n1         1 EFT      -0.460000
     14 O14          5.9120    -1.3870     0.0510 oh         1 EFT      -0.532100
     15 C15         -2.9610     0.1030     0.1430 c6         1 EFT      -0.063700
     16 C16         -3.0140    -1.3340    -0.3780 c6         1 EFT      -0.071400
     17 C17         -4.4270    -1.7470    -0.7760 c6         1 EFT      -0.073400
     18 C18         -5.4090    -1.5600     0.3760 c6         1 EFT      -0.074400
     19 C19         -5.3670    -0.1280     0.8990 c6         1 EFT      -0.073400
     20 C20         -3.9520     0.2800     1.2950 c6         1 EFT      -0.071400
     21 H1           3.9180    -2.5890    -1.1980 ha         1 EFT       0.116000
     22 H2           5.1250     0.8180     1.1430 ha         1 EFT       0.138000
     23 H3           1.6130    -1.7640    -1.3350 ha         1 EFT       0.119000
     24 H4           2.8540     2.5710     1.5460 hn         1 EFT       0.381000
     25 H5          -0.4870    -0.4340    -1.0310 hc         1 EFT       0.079700
     26 H6          -1.2040    -0.2030     1.3520 hc         1 EFT       0.058700
     27 H7          -1.5870     1.4860     1.0750 hc         1 EFT       0.058700
     28 H8           6.0000    -2.2110    -0.4400 ho         1 EFT       0.469000
     29 H9          -3.2750     0.7750    -0.6680 hc         1 EFT       0.056700
     30 H10         -2.3440    -1.4630    -1.2330 hc         1 EFT       0.037700
     31 H11         -2.6430    -2.0040     0.4080 hc         1 EFT       0.037700
     32 H12         -4.7530    -1.1430    -1.6300 hc         1 EFT       0.040200
     33 H13         -4.4300    -2.7860    -1.1140 hc         1 EFT       0.040200
     34 H14         -6.4210    -1.8150     0.0550 hc         1 EFT       0.038200
     35 H15         -5.1570    -2.2530     1.1860 hc         1 EFT       0.038200
     36 H16         -5.7330     0.5490     0.1210 hc         1 EFT       0.040200
     37 H17         -6.0400    -0.0160     1.7520 hc         1 EFT       0.040200
     38 H18         -3.6210    -0.3270     2.1470 hc         1 EFT       0.037700
     39 H19         -3.9410     1.3200     1.6340 hc         1 EFT       0.037700
@<TRIPOS>BOND
     1     1     2 ar  
     2     1     4 ar  
     3     1    21 1   
     4     2     3 ar  
     5     2    14 1   
     6     3     9 ar  
     7     3    22 1   
     8     4     8 ar  
     9     4    23 1   
    10     5     6 1   
    11     5     9 1   
    12     5    24 1   
    13     6     7 2   
    14     7     8 1   
    15     7    10 1   
    16     8     9 ar  
    17    10    11 1   
    18    10    12 1   
    19    10    25 1   
    20    11    15 1   
    21    11    26 1   
    22    11    27 1   
    23    12    13 3   
    24    14    28 1   
    25    15    16 1   
    26    15    20 1   
    27    15    29 1   
    28    16    17 1   
    29    16    30 1   
    30    16    31 1   
    31    17    18 1   
    32    17    32 1   
    33    17    33 1   
    34    18    19 1   
    35    18    34 1   
    36    18    35 1   
    37    19    20 1   
    38    19    36 1   
    39    19    37 1   
    40    20    38 1   
    41    20    39 1   
@<TRIPOS>SUBSTRUCTURE
     1 EFT         1 TEMP              0 ****  ****    0 ROOT
