@<TRIPOS>MOLECULE
EFU
   52    55     1     0     0
SMALL
No Charge or Current Charge


@<TRIPOS>ATOM
      1 C1          -0.0750     1.6000     0.3160 ca         1 EFU      -0.280600
      2 C2          -0.1490     3.0000     0.5480 ca         1 EFU       0.233100
      3 C3           0.8040     3.8800     0.0050 ca         1 EFU      -0.213000
      4 C4           1.0180     1.0890    -0.4280 ca         1 EFU       0.048000
      5 O5          -1.1440     3.5120     1.3180 oh         1 EFU      -0.549100
      6 C6          -1.1110     0.6810     0.9210 c          1 EFU       0.633700
      7 N7          -1.3730    -0.5800     0.3320 n          1 EFU      -0.387800
      8 O8          -1.6710     1.0200     1.9580 o          1 EFU      -0.652100
      9 C9           1.9460     1.9980    -0.9540 ca         1 EFU      -0.282900
     10 C10          1.8420     3.3330    -0.7530 ca         1 EFU       0.028800
     11 N11          2.9080     3.9540    -1.3700 na         1 EFU      -0.068400
     12 N12          3.7330     3.0000    -1.9960 nc         1 EFU      -0.523100
     13 C13          3.1500     1.8170    -1.7390 cd         1 EFU       0.380900
     14 C14          3.7380     0.5370    -2.2880 c3         1 EFU      -0.042400
     15 C15          3.5420    -0.6900    -1.4040 ca         1 EFU      -0.078300
     16 C16          2.8230    -1.8050    -1.8770 ca         1 EFU      -0.116000
     17 C17          3.1260    -2.9210     0.2650 ca         1 EFU      -0.109000
     18 C18          3.8480    -1.8140     0.7470 ca         1 EFU      -0.071300
     19 C19          2.6150    -2.9170    -1.0440 ca         1 EFU      -0.108000
     20 C20          4.0570    -0.7030    -0.0930 ca         1 EFU      -0.097000
     21 C21         -1.2810    -0.7760    -1.1360 c3         1 EFU       0.086300
     22 C22         -2.1610    -1.5960     1.0730 c3         1 EFU       0.140300
     23 C23         -3.6420    -1.6430     0.7020 ca         1 EFU      -0.115300
     24 C24         -4.5340    -0.6700     1.1950 ca         1 EFU      -0.095500
     25 C25         -6.3780    -1.7370     0.0170 ca         1 EFU      -0.103000
     26 C26         -5.4960    -2.7130    -0.4750 ca         1 EFU      -0.113500
     27 C27         -5.8960    -0.7160     0.8530 ca         1 EFU      -0.113500
     28 C28         -4.1330    -2.6680    -0.1320 ca         1 EFU      -0.095500
     29 C29          4.4010    -1.8150     2.1640 c3         1 EFU      -0.047800
     30 H1           0.7400     4.9500     0.1820 ha         1 EFU       0.139000
     31 H2           1.1560     0.0220    -0.5670 ha         1 EFU       0.124000
     32 H3          -1.5650     2.7240     1.7520 ho         1 EFU       0.514000
     33 H4           3.1030     4.9540    -1.3940 hn         1 EFU       0.379000
     34 H5           3.3060     0.3590    -3.2800 hc         1 EFU       0.065200
     35 H6           4.8110     0.6770    -2.4610 hc         1 EFU       0.065200
     36 H7           2.4160    -1.8090    -2.8850 ha         1 EFU       0.106000
     37 H8           2.9590    -3.7860     0.9040 ha         1 EFU       0.111000
     38 H9           2.0560    -3.7740    -1.4120 ha         1 EFU       0.111000
     39 H10          4.6110     0.1560     0.2780 ha         1 EFU       0.118000
     40 H11         -0.4040    -1.3920    -1.3740 h1         1 EFU       0.046033
     41 H12         -2.1750    -1.2860    -1.5130 h1         1 EFU       0.046033
     42 H13         -1.2030     0.1890    -1.6530 h1         1 EFU       0.046033
     43 H14         -1.7120    -2.5790     0.8800 h1         1 EFU       0.066700
     44 H15         -2.0670    -1.4240     2.1530 h1         1 EFU       0.066700
     45 H16         -4.1730     0.1240     1.8460 ha         1 EFU       0.118500
     46 H17         -7.4330    -1.7720    -0.2480 ha         1 EFU       0.113000
     47 H18         -5.8670    -3.5060    -1.1210 ha         1 EFU       0.113500
     48 H19         -6.5790     0.0400     1.2360 ha         1 EFU       0.113500
     49 H20         -3.4580    -3.4290    -0.5190 ha         1 EFU       0.118500
     50 H21          5.4330    -2.1830     2.1790 hc         1 EFU       0.043033
     51 H22          4.3980    -0.8060     2.5940 hc         1 EFU       0.043033
     52 H23          3.8070    -2.4560     2.8260 hc         1 EFU       0.043033
@<TRIPOS>BOND
     1     1     2 ar  
     2     1     4 ar  
     3     1     6 1   
     4     2     3 ar  
     5     2     5 1   
     6     3    10 ar  
     7     3    30 1   
     8     4     9 ar  
     9     4    31 1   
    10     5    32 1   
    11     6     7 1   
    12     6     8 2   
    13     7    21 1   
    14     7    22 1   
    15     9    10 ar  
    16     9    13 1   
    17    10    11 1   
    18    11    12 1   
    19    11    33 1   
    20    12    13 2   
    21    13    14 1   
    22    14    15 1   
    23    14    34 1   
    24    14    35 1   
    25    15    16 ar  
    26    15    20 ar  
    27    16    19 ar  
    28    16    36 1   
    29    17    18 ar  
    30    17    19 ar  
    31    17    37 1   
    32    18    20 ar  
    33    18    29 1   
    34    19    38 1   
    35    20    39 1   
    36    21    40 1   
    37    21    41 1   
    38    21    42 1   
    39    22    23 1   
    40    22    43 1   
    41    22    44 1   
    42    23    24 ar  
    43    23    28 ar  
    44    24    27 ar  
    45    24    45 1   
    46    25    26 ar  
    47    25    27 ar  
    48    25    46 1   
    49    26    28 ar  
    50    26    47 1   
    51    27    48 1   
    52    28    49 1   
    53    29    50 1   
    54    29    51 1   
    55    29    52 1   
@<TRIPOS>SUBSTRUCTURE
     1 EFU         1 TEMP              0 ****  ****    0 ROOT
