@<TRIPOS>MOLECULE
EFU
   52    55     1     0     0
SMALL
bcc


@<TRIPOS>ATOM
      1 C1          -0.3600     1.2010     0.4030 ca         1 EFU      -0.280600
      2 C2          -0.3700     2.5700     0.8280 ca         1 EFU       0.233100
      3 C3           0.5960     3.4600     0.3980 ca         1 EFU      -0.231000
      4 C4           0.6900     0.7250    -0.3600 ca         1 EFU       0.030000
      5 O5          -1.3260     3.0300     1.6440 oh         1 EFU      -0.510100
      6 C6          -1.4400     0.3120     0.9020 c          1 EFU       0.700700
      7 N7          -1.9010    -0.6850     0.1300 n          1 EFU      -0.454800
      8 O8          -1.8950     0.5140     2.0380 o          1 EFU      -0.652100
      9 C9           1.6890     1.5990    -0.7720 ca         1 EFU      -0.282900
     10 C10          1.6140     2.9560    -0.4110 ca         1 EFU       0.028800
     11 N11          2.6930     3.5400    -0.9690 na         1 EFU      -0.018100
     12 N12          3.4510     2.6660    -1.6560 nc         1 EFU      -0.523100
     13 C13          2.8770     1.4970    -1.5580 cd         1 EFU       0.380900
     14 C14          3.4420     0.2750    -2.2010 c3         1 EFU      -0.042400
     15 C15          3.7960    -0.7910    -1.1910 ca         1 EFU      -0.078300
     16 C16          3.1530    -2.0220    -1.1940 ca         1 EFU      -0.134000
     17 C17          4.4650    -2.7280     0.6970 ca         1 EFU      -0.127000
     18 C18          5.1270    -1.5000     0.7160 ca         1 EFU      -0.071300
     19 C19          3.4870    -2.9860    -0.2500 ca         1 EFU      -0.126000
     20 C20          4.7760    -0.5440    -0.2320 ca         1 EFU      -0.115000
     21 C21         -1.7000    -0.8070    -1.3020 c3         1 EFU       0.086300
     22 C22         -2.7970    -1.6840     0.7010 c3         1 EFU       0.140300
     23 C23         -4.2460    -1.4570     0.3430 ca         1 EFU      -0.115300
     24 C24         -4.9310    -0.3330     0.8030 ca         1 EFU      -0.113500
     25 C25         -6.9310    -1.0570    -0.3280 ca         1 EFU      -0.121000
     26 C26         -6.2580    -2.1800    -0.7870 ca         1 EFU      -0.131500
     27 C27         -6.2630    -0.1340     0.4700 ca         1 EFU      -0.131500
     28 C28         -4.9230    -2.3750    -0.4530 ca         1 EFU      -0.113500
     29 C29          6.2110    -1.2300     1.7200 c3         1 EFU      -0.047800
     30 H1           0.5690     4.4940     0.7140 ha         1 EFU       0.157000
     31 H2           0.7460    -0.3220    -0.6250 ha         1 EFU       0.142000
     32 H3          -1.7630     2.2530     2.0530 ho         1 EFU       0.475000
     33 H4           2.9700     4.5060    -0.9170 hn         1 EFU       0.328700
     34 H5           2.7220    -0.1300    -2.9170 hc         1 EFU       0.065200
     35 H6           4.3280     0.5620    -2.7710 hc         1 EFU       0.065200
     36 H7           2.3880    -2.2290    -1.9340 ha         1 EFU       0.124000
     37 H8           4.7170    -3.4860     1.4290 ha         1 EFU       0.129000
     38 H9           2.9790    -3.9430    -0.2550 ha         1 EFU       0.129000
     39 H10          5.2790     0.4180    -0.2230 ha         1 EFU       0.136000
     40 H11         -0.9590    -1.5710    -1.5450 h1         1 EFU       0.046033
     41 H12         -2.6430    -1.0990    -1.7630 h1         1 EFU       0.046033
     42 H13         -1.4030     0.1370    -1.7470 h1         1 EFU       0.046033
     43 H14         -2.4780    -2.6590     0.3280 h1         1 EFU       0.066700
     44 H15         -2.6690    -1.7000     1.7820 h1         1 EFU       0.066700
     45 H16         -4.4230     0.3890     1.4300 ha         1 EFU       0.136500
     46 H17         -7.9690    -0.9000    -0.5880 ha         1 EFU       0.131000
     47 H18         -6.7690    -2.9040    -1.4080 ha         1 EFU       0.131500
     48 H19         -6.7830     0.7420     0.8360 ha         1 EFU       0.131500
     49 H20         -4.4030    -3.2530    -0.8180 ha         1 EFU       0.136500
     50 H21          7.1430    -1.7170     1.4260 hc         1 EFU       0.043033
     51 H22          6.4170    -0.1640     1.8110 hc         1 EFU       0.043033
     52 H23          5.9460    -1.6100     2.7060 hc         1 EFU       0.043033
@<TRIPOS>BOND
     1     1     2 ar  
     2     1     4 ar  
     3     1     6 1   
     4     2     3 ar  
     5     2     5 1   
     6     3    10 ar  
     7     3    30 1   
     8     4     9 ar  
     9     4    31 1   
    10     5    32 1   
    11     6     7 1   
    12     6     8 2   
    13     7    21 1   
    14     7    22 1   
    15     9    10 ar  
    16     9    13 1   
    17    10    11 1   
    18    11    12 1   
    19    11    33 1   
    20    12    13 2   
    21    13    14 1   
    22    14    15 1   
    23    14    34 1   
    24    14    35 1   
    25    15    16 ar  
    26    15    20 ar  
    27    16    19 ar  
    28    16    36 1   
    29    17    18 ar  
    30    17    19 ar  
    31    17    37 1   
    32    18    20 ar  
    33    18    29 1   
    34    19    38 1   
    35    20    39 1   
    36    21    40 1   
    37    21    41 1   
    38    21    42 1   
    39    22    23 1   
    40    22    43 1   
    41    22    44 1   
    42    23    24 ar  
    43    23    28 ar  
    44    24    27 ar  
    45    24    45 1   
    46    25    26 ar  
    47    25    27 ar  
    48    25    46 1   
    49    26    28 ar  
    50    26    47 1   
    51    27    48 1   
    52    28    49 1   
    53    29    50 1   
    54    29    51 1   
    55    29    52 1   
@<TRIPOS>SUBSTRUCTURE
     1 EFU         1 TEMP              0 ****  ****    0 ROOT
