@<TRIPOS>MOLECULE
EFV
   44    47     1     0     0
SMALL
No Charge or Current Charge


@<TRIPOS>ATOM
      1 C1          25.6070    61.7600    18.2450 c3         1 EFV       0.143900
      2 C3          26.3310    60.5220    20.2690 ca         1 EFV       0.066100
      3 C4          25.0390    60.5610    20.8370 ca         1 EFV      -0.109000
      4 C5          24.8120    59.9580    22.1050 cp         1 EFV      -0.213500
      5 C6          25.9230    59.3500    22.7370 ca         1 EFV       0.367900
      6 C8          27.3670    59.8760    20.9990 ca         1 EFV       0.582300
      7 O2          26.6090    61.0900    19.0310 os         1 EFV      -0.321100
      8 N7          27.1650    59.3040    22.2100 nb         1 EFV      -0.740000
      9 O9          28.6340    59.8350    20.4470 os         1 EFV      -0.445300
     10 C10         29.7310    59.1970    21.1300 c3         1 EFV       0.156900
     11 C11         23.4650    59.9670    22.7630 cp         1 EFV       0.450500
     12 C12         23.0910    59.0270    23.7660 ca         1 EFV      -0.169000
     13 C13         21.8110    59.0860    24.3460 ca         1 EFV       0.007000
     14 C14         20.9690    60.0970    23.8770 ca         1 EFV      -0.214600
     15 C15         21.3740    60.9780    22.8980 ca         1 EFV       0.355300
     16 N16         22.6000    60.9230    22.3370 nb         1 EFV      -0.668000
     17 C17         20.2790    61.9780    22.5530 c5         1 EFV       0.049700
     18 N18         19.1950    61.5260    23.4870 n          1 EFV      -0.296000
     19 C19         19.5910    60.4210    24.2680 c          1 EFV       0.591600
     20 O20         18.9280    59.8350    25.1130 o          1 EFV      -0.532000
     21 C21         17.9470    62.1590    23.5430 cc         1 EFV      -0.047400
     22 C22         17.6120    63.2610    22.7350 cc         1 EFV       0.222900
     23 N23         16.3900    63.7070    22.9440 nd         1 EFV      -0.497800
     24 N24         15.9170    62.8460    23.9350 na         1 EFV       0.105800
     25 C25         16.8650    61.8860    24.3190 cd         1 EFV      -0.163000
     26 C26         14.5560    62.9920    24.4800 c3         1 EFV       0.165700
     27 C27         13.5880    62.0630    23.8880 c1         1 EFV       0.270900
     28 N28         12.8040    61.3240    23.4430 n1         1 EFV      -0.422000
     29 H1          26.0450    62.1320    17.3100 h1         1 EFV       0.045700
     30 H2          24.7900    61.0750    17.9870 h1         1 EFV       0.045700
     31 H3          25.1920    62.6170    18.7890 h1         1 EFV       0.045700
     32 H4          24.2150    61.0390    20.3140 ha         1 EFV       0.146000
     33 H5          25.8260    58.8910    23.7200 h4         1 EFV       0.022100
     34 H6          30.6480    59.2700    20.5320 h1         1 EFV       0.049700
     35 H7          29.9210    59.6760    22.1000 h1         1 EFV       0.049700
     36 H8          29.5220    58.1330    21.3020 h1         1 EFV       0.049700
     37 H9          23.7780    58.2490    24.0820 ha         1 EFV       0.131000
     38 H10         21.4940    58.3810    25.1140 ha         1 EFV       0.142000
     39 H11         20.6010    63.0060    22.7610 h1         1 EFV       0.080200
     40 H12         19.9800    61.8910    21.5010 h1         1 EFV       0.080200
     41 H13         18.2270    63.7550    21.9950 h4         1 EFV       0.042100
     42 H14         16.6850    61.1310    25.0760 h4         1 EFV       0.185000
     43 H15         14.2100    64.0170    24.3090 h1         1 EFV       0.093700
     44 H16         14.5900    62.8230    25.5620 h1         1 EFV       0.093700
@<TRIPOS>BOND
     1     1     7 1   
     2     1    29 1   
     3     1    30 1   
     4     1    31 1   
     5     2     3 ar  
     6     2     6 ar  
     7     2     7 1   
     8     3     4 ar  
     9     3    32 1   
    10     4     5 ar  
    11     4    11 1   
    12     5     8 ar  
    13     5    33 1   
    14     6     8 ar  
    15     6     9 1   
    16     9    10 1   
    17    10    34 1   
    18    10    35 1   
    19    10    36 1   
    20    11    12 ar  
    21    11    16 ar  
    22    12    13 ar  
    23    12    37 1   
    24    13    14 ar  
    25    13    38 1   
    26    14    15 ar  
    27    14    19 1   
    28    15    16 ar  
    29    15    17 1   
    30    17    18 1   
    31    17    39 1   
    32    17    40 1   
    33    18    19 1   
    34    18    21 1   
    35    19    20 2   
    36    21    22 1   
    37    21    25 2   
    38    22    23 2   
    39    22    41 1   
    40    23    24 1   
    41    24    25 1   
    42    24    26 1   
    43    25    42 1   
    44    26    27 1   
    45    26    43 1   
    46    26    44 1   
    47    27    28 3   
@<TRIPOS>SUBSTRUCTURE
     1 EFV         1 TEMP              0 ****  ****    0 ROOT
