@<TRIPOS>MOLECULE
EFV
   44    47     1     0     0
SMALL
abcg2


@<TRIPOS>ATOM
      1 C1          25.5050    61.8210    18.4250 c3         1 EFV       0.143900
      2 C3          26.2330    60.5450    20.2960 ca         1 EFV       0.066100
      3 C4          25.0030    60.5870    20.9110 ca         1 EFV      -0.109000
      4 C5          24.8150    59.9540    22.1560 cp         1 EFV      -0.213500
      5 C6          25.9090    59.3150    22.7180 ca         1 EFV       0.367900
      6 C8          27.2800    59.8530    20.9620 ca         1 EFV       0.582300
      7 O2          26.5400    61.1030    19.1020 os         1 EFV      -0.321100
      8 N7          27.1130    59.2690    22.1280 nb         1 EFV      -0.740000
      9 O9          28.4700    59.8220    20.3410 os         1 EFV      -0.445300
     10 C10         29.5450    59.1270    20.9910 c3         1 EFV       0.156900
     11 C11         23.4980    60.0040    22.8180 cp         1 EFV       0.450500
     12 C12         23.1660    59.1360    23.8750 ca         1 EFV      -0.169000
     13 C13         21.9230    59.2120    24.4810 ca         1 EFV       0.007000
     14 C14         21.0400    60.1630    23.9910 ca         1 EFV      -0.214600
     15 C15         21.4420    60.9700    22.9350 ca         1 EFV       0.355300
     16 N16         22.6230    60.9180    22.3490 nb         1 EFV      -0.668000
     17 C17         20.3290    61.9040    22.5640 c5         1 EFV       0.049700
     18 N18         19.2820    61.5290    23.5170 n          1 EFV      -0.296000
     19 C19         19.6600    60.5140    24.3700 c          1 EFV       0.591600
     20 O20         18.9620    60.0290    25.2520 o          1 EFV      -0.532000
     21 C21         18.0390    62.1500    23.5120 cc         1 EFV      -0.047400
     22 C22         17.6360    63.1960    22.6490 cc         1 EFV       0.222900
     23 N23         16.3880    63.5720    22.9060 nd         1 EFV      -0.497800
     24 N24         15.9890    62.7920    23.9260 na         1 EFV       0.105800
     25 C25         16.9430    61.9080    24.3230 cd         1 EFV      -0.163000
     26 C26         14.6280    62.8680    24.4040 c3         1 EFV       0.165700
     27 C27         13.7100    62.1050    23.5490 c1         1 EFV       0.270900
     28 N28         13.0010    61.5050    22.8720 n1         1 EFV      -0.422000
     29 H1          25.9550    62.1980    17.5110 h1         1 EFV       0.045700
     30 H2          24.6700    61.1590    18.1830 h1         1 EFV       0.045700
     31 H3          25.1470    62.6540    19.0340 h1         1 EFV       0.045700
     32 H4          24.1690    61.0960    20.4560 ha         1 EFV       0.146000
     33 H5          25.8470    58.8300    23.6840 h4         1 EFV       0.022100
     34 H6          30.3930    59.2200    20.3190 h1         1 EFV       0.049700
     35 H7          29.7710    59.5840    21.9550 h1         1 EFV       0.049700
     36 H8          29.2910    58.0770    21.1380 h1         1 EFV       0.049700
     37 H9          23.8760    58.3940    24.2080 ha         1 EFV       0.131000
     38 H10         21.6530    58.5500    25.2930 ha         1 EFV       0.142000
     39 H11         20.6140    62.9520    22.6860 h1         1 EFV       0.080200
     40 H12         19.9940    61.7530    21.5350 h1         1 EFV       0.080200
     41 H13         18.2030    63.6830    21.8720 h4         1 EFV       0.042100
     42 H14         16.7810    61.2080    25.1200 h4         1 EFV       0.185000
     43 H15         14.3110    63.9110    24.4220 h1         1 EFV       0.093700
     44 H16         14.5790    62.4750    25.4190 h1         1 EFV       0.093700
@<TRIPOS>BOND
     1     1     7 1   
     2     1    29 1   
     3     1    30 1   
     4     1    31 1   
     5     2     3 ar  
     6     2     6 ar  
     7     2     7 1   
     8     3     4 ar  
     9     3    32 1   
    10     4     5 ar  
    11     4    11 1   
    12     5     8 ar  
    13     5    33 1   
    14     6     8 ar  
    15     6     9 1   
    16     9    10 1   
    17    10    34 1   
    18    10    35 1   
    19    10    36 1   
    20    11    12 ar  
    21    11    16 ar  
    22    12    13 ar  
    23    12    37 1   
    24    13    14 ar  
    25    13    38 1   
    26    14    15 ar  
    27    14    19 1   
    28    15    16 ar  
    29    15    17 1   
    30    17    18 1   
    31    17    39 1   
    32    17    40 1   
    33    18    19 1   
    34    18    21 1   
    35    19    20 2   
    36    21    22 1   
    37    21    25 2   
    38    22    23 2   
    39    22    41 1   
    40    23    24 1   
    41    24    25 1   
    42    24    26 1   
    43    25    42 1   
    44    26    27 1   
    45    26    43 1   
    46    26    44 1   
    47    27    28 3   
@<TRIPOS>SUBSTRUCTURE
     1 EFV         1 TEMP              0 ****  ****    0 ROOT
