@<TRIPOS>MOLECULE
EFW
   31    32     1     0     0
SMALL
No Charge or Current Charge


@<TRIPOS>ATOM
      1 C5           1.9800     1.0290    -1.0120 ca         1 EFW       0.021000
      2 C6           0.6470     0.6370    -1.1920 ca         1 EFW      -0.250000
      3 C16          2.2490    -0.9250     0.3850 ca         1 EFW       0.422900
      4 C4           2.8050     0.2280    -0.1970 ca         1 EFW      -0.277600
      5 C7           0.1990    -0.5180    -0.5430 ca         1 EFW       0.640900
      6 C2           4.2370     0.6000     0.0280 c          1 EFW       0.632700
      7 C10         -2.2120    -0.0030     1.2090 c5         1 EFW      -0.105400
      8 C11         -3.6290     0.6170     1.3860 c5         1 EFW      -0.118400
      9 C14         -3.4390    -0.7400    -0.6710 c5         1 EFW      -0.086400
     10 C9          -2.1060    -0.0360    -0.3350 c5         1 EFW       0.231500
     11 C12         -4.4520     0.1140     0.1470 c5         1 EFW       0.165300
     12 N15          0.9630    -1.3000     0.2090 nb         1 EFW      -0.769000
     13 N1           4.9960    -0.1920     0.8130 nt         1 EFW      -0.607000
     14 N8          -1.0570    -1.0370    -0.6530 nu         1 EFW      -0.922100
     15 O3           4.7380     1.5920    -0.4720 o          1 EFW      -0.615100
     16 O13         -4.9420     1.2100    -0.6220 oh         1 EFW      -0.651000
     17 H1           2.3610     1.9260    -1.5000 ha         1 EFW       0.138000
     18 H2          -0.0150     1.2120    -1.8300 ha         1 EFW       0.126000
     19 H3           2.8410    -1.5860     1.0160 h4         1 EFW       0.009100
     20 H5          -2.1620    -1.0020     1.6600 hc         1 EFW       0.055700
     21 H6          -4.0880     0.3060     2.3320 hc         1 EFW       0.055700
     22 H7          -3.5710     1.7120     1.4130 hc         1 EFW       0.055700
     23 H8          -3.6540    -0.7410    -1.7450 hc         1 EFW       0.065700
     24 H9          -3.4620    -1.7840    -0.3350 hc         1 EFW       0.065700
     25 H10         -2.0080     0.9530    -0.8080 h1         1 EFW       0.065700
     26 H11         -5.2950    -0.5130     0.4670 h1         1 EFW       0.029700
     27 H12          4.6080    -1.0190     1.2400 hn         1 EFW       0.311000
     28 H13          5.9620     0.0560     0.9670 hn         1 EFW       0.311000
     29 H14         -1.0680    -1.9200    -0.1530 hn         1 EFW       0.497000
     30 H15         -5.6180     1.6630    -0.0710 ho         1 EFW       0.446000
     31 H4          -1.4290     0.6070     1.6730 hc         1 EFW       0.055700
@<TRIPOS>BOND
     1     1     2 ar  
     2     1     4 ar  
     3     1    17 1   
     4     2     5 ar  
     5     2    18 1   
     6     3     4 ar  
     7     3    12 ar  
     8     3    19 1   
     9     4     6 1   
    10     5    12 ar  
    11     5    14 1   
    12     6    13 1   
    13     6    15 2   
    14     7     8 1   
    15     7    10 1   
    16     7    20 1   
    17     7    31 1   
    18     8    11 1   
    19     8    21 1   
    20     8    22 1   
    21     9    10 1   
    22     9    11 1   
    23     9    23 1   
    24     9    24 1   
    25    10    14 1   
    26    10    25 1   
    27    11    16 1   
    28    11    26 1   
    29    13    27 1   
    30    13    28 1   
    31    14    29 1   
    32    16    30 1   
@<TRIPOS>SUBSTRUCTURE
     1 EFW         1 TEMP              0 ****  ****    0 ROOT
