@<TRIPOS>MOLECULE
EFW
   31    32     1     0     0
SMALL
abcg2


@<TRIPOS>ATOM
      1 C5           2.1060     1.0700    -0.3060 ca         1 EFW       0.021000
      2 C6           0.7570     0.8170    -0.3350 ca         1 EFW      -0.250000
      3 C16          2.4640    -1.1810     0.3340 ca         1 EFW       0.422900
      4 C4           3.0140     0.0560     0.0180 ca         1 EFW      -0.277600
      5 C7           0.3100    -0.4860    -0.0280 ca         1 EFW       0.640900
      6 C2           4.4660     0.3620     0.0470 c          1 EFW       0.632700
      7 C10         -2.5160     0.8310     1.0080 c5         1 EFW      -0.105400
      8 C11         -3.9770     1.1580     0.7380 c5         1 EFW      -0.118400
      9 C14         -3.3780    -0.6910    -0.7030 c5         1 EFW      -0.086400
     10 C9          -2.1010     0.0520    -0.2520 c5         1 EFW       0.231500
     11 C12         -4.5100    -0.1670     0.1900 c5         1 EFW       0.165300
     12 N15          1.1720    -1.4530     0.3150 nb         1 EFW      -0.769000
     13 N1           5.3080    -0.6850     0.1150 nt         1 EFW      -0.607000
     14 N8          -0.9870    -0.8460    -0.0770 nu         1 EFW      -0.922100
     15 O3           4.8690     1.5190     0.0160 o          1 EFW      -0.615100
     16 O13         -5.7100    -0.0790    -0.5410 oh         1 EFW      -0.651000
     17 H1           2.4650     2.0630    -0.5420 ha         1 EFW       0.138000
     18 H2           0.0630     1.6060    -0.5840 ha         1 EFW       0.126000
     19 H3           3.0940    -2.0110     0.6410 h4         1 EFW       0.009100
     20 H5          -2.4320     0.1790     1.8830 hc         1 EFW       0.055700
     21 H6          -4.5170     1.5030     1.6210 hc         1 EFW       0.055700
     22 H7          -4.0600     1.9340    -0.0310 hc         1 EFW       0.055700
     23 H8          -3.5950    -0.4720    -1.7500 hc         1 EFW       0.065700
     24 H9          -3.2680    -1.7740    -0.6200 hc         1 EFW       0.065700
     25 H10         -1.8390     0.7730    -1.0300 h1         1 EFW       0.065700
     26 H11         -4.6300    -0.8540     1.0390 h1         1 EFW       0.029700
     27 H12          5.0090    -1.6370     0.0000 hn         1 EFW       0.311000
     28 H13          6.3010    -0.5190     0.1050 hn         1 EFW       0.311000
     29 H14         -1.1890    -1.7690     0.2770 hn         1 EFW       0.497000
     30 H15         -6.4180     0.1400     0.0720 ho         1 EFW       0.446000
     31 H4          -1.8930     1.7080     1.1880 hc         1 EFW       0.055700
@<TRIPOS>BOND
     1     1     2 ar  
     2     1     4 ar  
     3     1    17 1   
     4     2     5 ar  
     5     2    18 1   
     6     3     4 ar  
     7     3    12 ar  
     8     3    19 1   
     9     4     6 1   
    10     5    12 ar  
    11     5    14 1   
    12     6    13 1   
    13     6    15 2   
    14     7     8 1   
    15     7    10 1   
    16     7    20 1   
    17     7    31 1   
    18     8    11 1   
    19     8    21 1   
    20     8    22 1   
    21     9    10 1   
    22     9    11 1   
    23     9    23 1   
    24     9    24 1   
    25    10    14 1   
    26    10    25 1   
    27    11    16 1   
    28    11    26 1   
    29    13    27 1   
    30    13    28 1   
    31    14    29 1   
    32    16    30 1   
@<TRIPOS>SUBSTRUCTURE
     1 EFW         1 TEMP              0 ****  ****    0 ROOT
