@<TRIPOS>MOLECULE
EFX
   30    31     1     0     0
SMALL
No Charge or Current Charge


@<TRIPOS>ATOM
      1 C            4.6910    -0.4180     0.8670 c          1 EFX       0.713600
      2 O            5.7590     0.1780     0.9110 o          1 EFX      -0.719000
      3 C1           3.4680     0.3170     0.3430 ca         1 EFX      -0.139600
      4 C10         -1.6150    -2.3750    -0.6090 ca         1 EFX      -0.135000
      5 C11         -0.3710    -1.7280    -0.5610 ca         1 EFX      -0.072000
      6 C12          1.1880     1.6840    -0.6260 ca         1 EFX      -0.118000
      7 C13          2.4320     2.3320    -0.5800 ca         1 EFX      -0.150000
      8 C14          3.5640     1.6560    -0.0990 ca         1 EFX      -0.073000
      9 C2           2.2070    -0.3230     0.2890 ca         1 EFX      -0.067000
     10 C3           1.0500     0.3430    -0.1940 cp         1 EFX      -0.096000
     11 C4          -0.2770    -0.3510    -0.2440 cp         1 EFX      -0.006000
     12 C5          -1.4800     0.3510     0.0250 ca         1 EFX      -0.059000
     13 C6          -2.7400    -0.2880    -0.0180 ca         1 EFX      -0.154600
     14 C7          -3.9950     0.5040     0.2800 c          1 EFX       0.607700
     15 C8          -6.3990     0.4250     0.4750 c3         1 EFX       0.154900
     16 C9          -2.7940    -1.6630    -0.3390 ca         1 EFX      -0.077000
     17 O1           4.5680    -1.5800     1.2280 o          1 EFX      -0.719000
     18 O2          -5.1490    -0.2360     0.2080 os         1 EFX      -0.442100
     19 O3          -3.9760     1.6970     0.5600 o          1 EFX      -0.500000
     20 H6          -1.6660    -3.4330    -0.8580 ha         1 EFX       0.108000
     21 H7           0.5280    -2.2960    -0.7880 ha         1 EFX       0.131000
     22 H8           0.3290     2.2240    -1.0150 ha         1 EFX       0.089000
     23 H9           2.5190     3.3610    -0.9200 ha         1 EFX       0.088000
     24 H10          4.5190     2.1780    -0.0720 ha         1 EFX       0.128000
     25 H            2.1160    -1.3480     0.6390 ha         1 EFX       0.129000
     26 H1          -1.4260     1.4050     0.2840 ha         1 EFX       0.136000
     27 H3          -6.4140     0.8370     1.4930 h1         1 EFX       0.042033
     28 H4          -6.5680     1.2440    -0.2360 h1         1 EFX       0.042033
     29 H2          -7.2320    -0.2830     0.3820 h1         1 EFX       0.042033
     30 H5          -3.7460    -2.1890    -0.3820 ha         1 EFX       0.115000
@<TRIPOS>BOND
     1     1     2 1   
     2     1     3 1   
     3     1    17 1   
     4     3     8 ar  
     5     3     9 ar  
     6     4     5 ar  
     7     4    16 ar  
     8     4    20 1   
     9     5    11 ar  
    10     5    21 1   
    11     6     7 ar  
    12     6    10 ar  
    13     6    22 1   
    14     7     8 ar  
    15     7    23 1   
    16     8    24 1   
    17     9    10 ar  
    18     9    25 1   
    19    10    11 1   
    20    11    12 ar  
    21    12    13 ar  
    22    12    26 1   
    23    13    14 1   
    24    13    16 ar  
    25    14    18 1   
    26    14    19 2   
    27    15    18 1   
    28    15    27 1   
    29    15    28 1   
    30    15    29 1   
    31    16    30 1   
@<TRIPOS>SUBSTRUCTURE
     1 EFX         1 TEMP              0 ****  ****    0 ROOT
