@<TRIPOS>MOLECULE
EFX
   30    31     1     0     0
SMALL
bcc


@<TRIPOS>ATOM
      1 C            4.5980    -0.4130     0.8980 c          1 EFX       0.924200
      2 O            5.6760     0.2090     0.8930 o          1 EFX      -0.824300
      3 C1           3.3820     0.3240     0.3460 ca         1 EFX      -0.139600
      4 C10         -1.5980    -2.3470    -0.6240 ca         1 EFX      -0.153000
      5 C11         -0.3740    -1.6980    -0.5760 ca         1 EFX      -0.090000
      6 C12          1.1390     1.6620    -0.6460 ca         1 EFX      -0.136000
      7 C13          2.3710     2.2980    -0.6030 ca         1 EFX      -0.168000
      8 C14          3.4860     1.6350    -0.1120 ca         1 EFX      -0.091000
      9 C2           2.1420    -0.3030     0.2970 ca         1 EFX      -0.085000
     10 C3           1.0110     0.3480    -0.1960 cp         1 EFX      -0.096000
     11 C4          -0.2930    -0.3450    -0.2440 cp         1 EFX      -0.006000
     12 C5          -1.4740     0.3360     0.0390 ca         1 EFX      -0.077000
     13 C6          -2.7070    -0.3080    -0.0100 ca         1 EFX      -0.154600
     14 C7          -3.9200     0.4880     0.3110 c          1 EFX       0.656700
     15 C8          -6.2670     0.4520     0.4720 c3         1 EFX       0.131700
     16 C9          -2.7690    -1.6600    -0.3440 ca         1 EFX      -0.095000
     17 O1           4.4070    -1.5750     1.3060 o          1 EFX      -0.824300
     18 O2          -5.0350    -0.2120     0.1910 os         1 EFX      -0.418900
     19 O3          -3.8940     1.6490     0.6420 o          1 EFX      -0.549000
     20 H6          -1.6410    -3.3950    -0.8880 ha         1 EFX       0.126000
     21 H7           0.5270    -2.2480    -0.8190 ha         1 EFX       0.149000
     22 H8           0.2810     2.1840    -1.0520 ha         1 EFX       0.107000
     23 H9           2.4620     3.3150    -0.9640 ha         1 EFX       0.106000
     24 H10          4.4450     2.1350    -0.0860 ha         1 EFX       0.146000
     25 H            2.0580    -1.3160     0.6690 ha         1 EFX       0.147000
     26 H1          -1.4340     1.3810     0.3180 ha         1 EFX       0.154000
     27 H3          -6.3030     0.8040     1.5030 h1         1 EFX       0.042033
     28 H4          -6.4280     1.2940    -0.2010 h1         1 EFX       0.042033
     29 H2          -7.0460    -0.2880     0.3150 h1         1 EFX       0.042033
     30 H5          -3.7150    -2.1810    -0.3910 ha         1 EFX       0.133000
@<TRIPOS>BOND
     1     1     2 1   
     2     1     3 1   
     3     1    17 1   
     4     3     8 ar  
     5     3     9 ar  
     6     4     5 ar  
     7     4    16 ar  
     8     4    20 1   
     9     5    11 ar  
    10     5    21 1   
    11     6     7 ar  
    12     6    10 ar  
    13     6    22 1   
    14     7     8 ar  
    15     7    23 1   
    16     8    24 1   
    17     9    10 ar  
    18     9    25 1   
    19    10    11 1   
    20    11    12 ar  
    21    12    13 ar  
    22    12    26 1   
    23    13    14 1   
    24    13    16 ar  
    25    14    18 1   
    26    14    19 2   
    27    15    18 1   
    28    15    27 1   
    29    15    28 1   
    30    15    29 1   
    31    16    30 1   
@<TRIPOS>SUBSTRUCTURE
     1 EFX         1 TEMP              0 ****  ****    0 ROOT
