@<TRIPOS>MOLECULE
EFZ
   30    32     1     0     0
SMALL
No Charge or Current Charge


@<TRIPOS>ATOM
      1 Cl           0.6580    -4.0980     1.0560 cl         1 EFZ      -0.185000
      2 F1          -0.8680     2.8720     1.4370 f          1 EFZ      -0.101000
      3 F2           1.1100     2.0490     1.8140 f          1 EFZ      -0.101000
      4 F3          -0.6600     0.9030     2.3480 f          1 EFZ      -0.101000
      5 O1           2.0560     3.3040    -1.7900 o          1 EFZ      -0.499000
      6 O2           0.3290     2.0470    -0.9900 os         1 EFZ      -0.425100
      7 N            2.4610     1.1870    -1.0260 ns         1 EFZ      -0.164000
      8 C1           2.0650    -0.0650    -0.5410 ca         1 EFZ       0.017000
      9 C2           2.9460    -1.1590    -0.5400 ca         1 EFZ      -0.153000
     10 C3           2.5110    -2.4040    -0.0530 ca         1 EFZ      -0.047000
     11 C4           1.2010    -2.5440     0.4350 ca         1 EFZ       0.082000
     12 C5           0.3260    -1.4440     0.4390 ca         1 EFZ      -0.024000
     13 C6           0.7560    -0.1940    -0.0620 ca         1 EFZ      -0.177300
     14 C7          -0.1370     1.0630    -0.0280 c6         1 EFZ       0.314400
     15 C8          -1.5210     0.7440    -0.4470 c1         1 EFZ      -0.184100
     16 C9          -2.6470     0.4410    -0.7670 c1         1 EFZ       0.006900
     17 C10         -3.9910     0.0600    -1.1390 cx         1 EFZ      -0.082600
     18 C11         -4.3080    -1.4020    -1.3630 cx         1 EFZ      -0.105900
     19 C12         -4.8480    -0.6910    -0.1450 cx         1 EFZ      -0.105900
     20 C13         -0.1410     1.7280     1.4060 c3         1 EFZ       0.290000
     21 C14          1.6590     2.2870    -1.2410 c          1 EFZ       0.722100
     22 HN           3.4340     1.2890    -1.2790 hn         1 EFZ       0.182000
     23 H2           3.9610    -1.0490    -0.9160 ha         1 EFZ       0.129000
     24 H3           3.1860    -3.2570    -0.0500 ha         1 EFZ       0.136000
     25 H5          -0.6780    -1.5700     0.8390 ha         1 EFZ       0.146000
     26 H101        -4.4930     0.7800    -1.7830 hc         1 EFZ       0.102700
     27 H111        -5.0080    -1.6520    -2.1560 hc         1 EFZ       0.081450
     28 H112        -3.5140    -2.1310    -1.2120 hc         1 EFZ       0.081450
     29 H121        -4.4170    -0.9440     0.8210 hc         1 EFZ       0.081450
     30 H122        -5.9110    -0.4630    -0.1210 hc         1 EFZ       0.081450
@<TRIPOS>BOND
     1     1    11 1   
     2     2    20 1   
     3     3    20 1   
     4     4    20 1   
     5     5    21 2   
     6     6    14 1   
     7     6    21 1   
     8     7     8 1   
     9     7    21 1   
    10     7    22 1   
    11     8     9 ar  
    12     8    13 ar  
    13     9    10 ar  
    14     9    23 1   
    15    10    11 ar  
    16    10    24 1   
    17    11    12 ar  
    18    12    13 ar  
    19    12    25 1   
    20    13    14 1   
    21    14    15 1   
    22    14    20 1   
    23    15    16 3   
    24    16    17 1   
    25    17    18 1   
    26    17    19 1   
    27    17    26 1   
    28    18    19 1   
    29    18    27 1   
    30    18    28 1   
    31    19    29 1   
    32    19    30 1   
@<TRIPOS>SUBSTRUCTURE
     1 EFZ         1 TEMP              0 ****  ****    0 ROOT
