@<TRIPOS>MOLECULE
EFZ
   30    32     1     0     0
SMALL
bcc


@<TRIPOS>ATOM
      1 CL           1.3920    -4.3170     0.1490 cl         1 EFZ      -0.093400
      2 F1          -1.1640     2.0190     1.7350 f          1 EFZ      -0.222300
      3 F2           0.9280     1.5650     1.9500 f          1 EFZ      -0.222300
      4 F3          -0.5480     0.0320     2.2950 f          1 EFZ      -0.222300
      5 O1           1.5380     3.4560    -1.2230 o          1 EFZ      -0.574500
      6 O2           0.1240     1.8610    -0.6850 os         1 EFZ      -0.401900
      7 N            2.3740     1.4120    -0.7230 ns         1 EFZ      -0.490100
      8 C1           2.1660     0.0600    -0.5010 ca         1 EFZ       0.109600
      9 C2           3.2020    -0.8550    -0.6440 ca         1 EFZ      -0.171000
     10 C3           2.9670    -2.2010    -0.4340 ca         1 EFZ      -0.065000
     11 C4           1.6910    -2.6310    -0.0980 ca         1 EFZ      -0.009600
     12 C5           0.6520    -1.7280     0.0450 ca         1 EFZ      -0.042000
     13 C6           0.8970    -0.3780    -0.1470 ca         1 EFZ      -0.177300
     14 C7          -0.1700     0.6720     0.0450 c6         1 EFZ       0.291200
     15 C8          -1.4810     0.2140    -0.3800 c1         1 EFZ      -0.184100
     16 C9          -2.5650    -0.1840    -0.7140 c1         1 EFZ       0.006900
     17 C10         -3.8550    -0.6540    -1.1130 cx         1 EFZ      -0.082600
     18 C11         -4.9620    -0.7230    -0.0860 cx         1 EFZ      -0.105900
     19 C12         -5.0130     0.3160    -1.1470 cx         1 EFZ      -0.105900
     20 C13         -0.2440     1.0810     1.5360 c3         1 EFZ       0.653900
     21 C14          1.3790     2.3130    -0.8850 c          1 EFZ       0.864600
     22 HN           3.3090     1.7350    -0.9240 hn         1 EFZ       0.348500
     23 H2           4.1910    -0.5180    -0.9250 ha         1 EFZ       0.147000
     24 H3           3.7740    -2.9120    -0.5450 ha         1 EFZ       0.154000
     25 H5          -0.3410    -2.0730     0.3000 ha         1 EFZ       0.164000
     26 H101        -3.8420    -1.4280    -1.8710 hc         1 EFZ       0.102700
     27 H111        -5.6300    -1.5710    -0.1570 hc         1 EFZ       0.081450
     28 H112        -4.7230    -0.4160     0.9230 hc         1 EFZ       0.081450
     29 H121        -4.8110     1.3420    -0.8710 hc         1 EFZ       0.081450
     30 H122        -5.7180     0.1950    -1.9580 hc         1 EFZ       0.081450
@<TRIPOS>BOND
     1     1    11 1   
     2     2    20 1   
     3     3    20 1   
     4     4    20 1   
     5     5    21 2   
     6     6    14 1   
     7     6    21 1   
     8     7     8 1   
     9     7    21 1   
    10     7    22 1   
    11     8     9 ar  
    12     8    13 ar  
    13     9    10 ar  
    14     9    23 1   
    15    10    11 ar  
    16    10    24 1   
    17    11    12 ar  
    18    12    13 ar  
    19    12    25 1   
    20    13    14 1   
    21    14    15 1   
    22    14    20 1   
    23    15    16 3   
    24    16    17 1   
    25    17    18 1   
    26    17    19 1   
    27    17    26 1   
    28    18    19 1   
    29    18    27 1   
    30    18    28 1   
    31    19    29 1   
    32    19    30 1   
@<TRIPOS>SUBSTRUCTURE
     1 EFZ         1 TEMP              0 ****  ****    0 ROOT
