@<TRIPOS>MOLECULE
EG0
   34    34     1     0     0
SMALL
abcg2


@<TRIPOS>ATOM
      1 N1          13.0840    14.0250     5.6650 n          1 EG0      -0.390800
      2 C4          11.5140    13.3810     7.4360 c6         1 EG0      -0.095900
      3 C5          10.5390    14.4750     7.0040 c6         1 EG0      -0.036700
      4 C6          13.7380    13.2970     4.7370 c          1 EG0       0.613100
      5 C7          14.5260    12.0580     5.1540 c3         1 EG0      -0.128700
      6 C8          14.0780    10.8650     4.3170 c3         1 EG0       0.087600
      7 C10          9.0910    14.0830     7.2620 c3         1 EG0      -0.203400
      8 O2           7.8640    13.0280     9.0090 o          1 EG0      -0.741000
      9 C11          8.6950    13.9220     8.7450 c          1 EG0       0.715000
     10 O3           9.2040    14.7240     9.5560 o          1 EG0      -0.741000
     11 C3          12.9530    13.7400     7.0850 c6         1 EG0       0.095000
     12 C1          10.7730    14.8110     5.5320 c6         1 EG0      -0.095900
     13 C2          12.2350    15.1340     5.2530 c6         1 EG0       0.095000
     14 O1          13.7430    13.6100     3.5510 o          1 EG0      -0.640100
     15 C9          16.0190    12.3140     4.9440 c3         1 EG0      -0.081100
     16 S1          12.3200    10.5020     4.6610 sh         1 EG0      -0.426800
     17 H1          11.4460    13.2160     8.5140 hc         1 EG0       0.051700
     18 H2          11.2520    12.4370     6.9470 hc         1 EG0       0.051700
     19 H3          10.7650    15.3740     7.5890 hc         1 EG0       0.057700
     20 H4          14.3770    11.8000     6.2010 hc         1 EG0       0.071700
     21 H5          14.6830     9.9960     4.5720 h1         1 EG0       0.060200
     22 H6          14.2020    11.0760     3.2560 h1         1 EG0       0.060200
     23 H7           8.4390    14.8570     6.8350 hc         1 EG0       0.020700
     24 H8           8.8580    13.1640     6.7130 hc         1 EG0       0.020700
     25 H10         13.6320    12.9520     7.3940 h1         1 EG0       0.041950
     26 H11         13.2510    14.6380     7.6350 h1         1 EG0       0.041950
     27 H12         10.1580    15.6680     5.2400 hc         1 EG0       0.051700
     28 H13         10.4650    13.9700     4.9000 hc         1 EG0       0.051700
     29 H14         12.3980    15.3460     4.2000 h1         1 EG0       0.041950
     30 H15         12.5330    16.0240     5.8180 h1         1 EG0       0.041950
     31 H16         16.3630    13.1530     5.5500 hc         1 EG0       0.037367
     32 H17         16.5960    11.4360     5.2340 hc         1 EG0       0.037367
     33 H18         16.2380    12.5360     3.9000 hc         1 EG0       0.037367
     34 H19         12.1350     9.5950     3.6950 hs         1 EG0       0.195800
@<TRIPOS>BOND
     1     1     4 1   
     2     1    11 1   
     3     1    13 1   
     4     2     3 1   
     5     2    11 1   
     6     2    17 1   
     7     2    18 1   
     8     3     7 1   
     9     3    12 1   
    10     3    19 1   
    11     4     5 1   
    12     4    14 2   
    13     5     6 1   
    14     5    15 1   
    15     5    20 1   
    16     6    16 1   
    17     6    21 1   
    18     6    22 1   
    19     7     9 1   
    20     7    23 1   
    21     7    24 1   
    22     8     9 1   
    23     9    10 1   
    24    11    25 1   
    25    11    26 1   
    26    12    13 1   
    27    12    27 1   
    28    12    28 1   
    29    13    29 1   
    30    13    30 1   
    31    15    31 1   
    32    15    32 1   
    33    15    33 1   
    34    16    34 1   
@<TRIPOS>SUBSTRUCTURE
     1 EG0         1 TEMP              0 ****  ****    0 ROOT
