@<TRIPOS>MOLECULE
EG0
   34    34     1     0     0
SMALL
No Charge or Current Charge


@<TRIPOS>ATOM
      1 N1          12.5770    13.4440     5.3780 n          1 EG0      -0.390800
      2 C4          11.2520    13.3570     7.5610 c6         1 EG0      -0.095900
      3 C5          10.4530    14.6160     7.1500 c6         1 EG0      -0.036700
      4 C6          13.7070    13.1020     4.5940 c          1 EG0       0.613100
      5 C7          14.4960    11.8130     4.9280 c3         1 EG0      -0.128700
      6 C8          14.7350    10.9530     3.6680 c3         1 EG0       0.087600
      7 C10          9.0500    14.7030     7.8330 c3         1 EG0      -0.203400
      8 O2           9.1110    13.8970    10.0710 o          1 EG0      -0.741000
      9 C11          9.1430    14.8900     9.3600 c          1 EG0       0.715000
     10 O3           9.2740    16.0250     9.7930 o          1 EG0      -0.741000
     11 C3          12.6320    13.2980     6.8660 c6         1 EG0       0.095000
     12 C1          10.3270    14.6260     5.6100 c6         1 EG0      -0.095900
     13 C2          11.7110    14.5700     4.9220 c6         1 EG0       0.095000
     14 O1          14.0400    13.8050     3.6440 o          1 EG0      -0.640100
     15 C9          15.8260    12.1630     5.6390 c3         1 EG0      -0.081100
     16 S1          13.1720    10.3020     2.9170 sh         1 EG0      -0.426800
     17 H1          11.4030    13.3360     8.6490 hc         1 EG0       0.051700
     18 H2          10.6810    12.4530     7.3080 hc         1 EG0       0.051700
     19 H3          11.0130    15.5110     7.4610 hc         1 EG0       0.057700
     20 H4          13.9150    11.2070     5.6290 hc         1 EG0       0.071700
     21 H5          15.3620    10.0910     3.9310 h1         1 EG0       0.060200
     22 H6          15.2730    11.5380     2.9100 h1         1 EG0       0.060200
     23 H7           8.5660    15.5880     7.4010 hc         1 EG0       0.020700
     24 H8           8.5200    13.7700     7.6000 hc         1 EG0       0.020700
     25 H10         13.1120    12.3570     7.1570 h1         1 EG0       0.041950
     26 H11         13.2610    14.1080     7.2640 h1         1 EG0       0.041950
     27 H12          9.7950    15.5270     5.2770 hc         1 EG0       0.051700
     28 H13          9.7250    13.7690     5.2790 hc         1 EG0       0.051700
     29 H14         11.5550    14.4930     3.8360 h1         1 EG0       0.041950
     30 H15         12.2410    15.5150     5.1080 h1         1 EG0       0.041950
     31 H16         15.6370    12.7470     6.5480 hc         1 EG0       0.037367
     32 H17         16.3640    11.2520     5.9270 hc         1 EG0       0.037367
     33 H18         16.4760    12.7540     4.9830 hc         1 EG0       0.037367
     34 H19         13.7640     9.6290     1.9000 hs         1 EG0       0.195800
@<TRIPOS>BOND
     1     1     4 1   
     2     1    11 1   
     3     1    13 1   
     4     2     3 1   
     5     2    11 1   
     6     2    17 1   
     7     2    18 1   
     8     3     7 1   
     9     3    12 1   
    10     3    19 1   
    11     4     5 1   
    12     4    14 2   
    13     5     6 1   
    14     5    15 1   
    15     5    20 1   
    16     6    16 1   
    17     6    21 1   
    18     6    22 1   
    19     7     9 1   
    20     7    23 1   
    21     7    24 1   
    22     8     9 1   
    23     9    10 1   
    24    11    25 1   
    25    11    26 1   
    26    12    13 1   
    27    12    27 1   
    28    12    28 1   
    29    13    29 1   
    30    13    30 1   
    31    15    31 1   
    32    15    32 1   
    33    15    33 1   
    34    16    34 1   
@<TRIPOS>SUBSTRUCTURE
     1 EG0         1 TEMP              0 ****  ****    0 ROOT
