@<TRIPOS>MOLECULE
EG1
   50    50     1     0     0
SMALL
No Charge or Current Charge


@<TRIPOS>ATOM
      1 S            1.6960    -1.0740    -6.3740 sy         1 EG1       1.125600
      2 O1           3.0850    -1.0490    -5.9190 o          1 EG1      -0.541500
      3 O2           1.1390    -2.2030    -7.1160 o          1 EG1      -0.541500
      4 N1           1.6220     0.1570    -7.4430 n8         1 EG1      -1.005100
      5 C1          -1.1920     0.2890    -3.0070 ca         1 EG1      -0.095600
      6 C2          -1.6670    -0.4420    -4.1220 ca         1 EG1      -0.096500
      7 C3          -0.7940    -0.8570    -5.1420 ca         1 EG1      -0.020000
      8 C4           0.5790    -0.5480    -5.0670 ca         1 EG1      -0.251500
      9 C5           1.0670     0.1810    -3.9650 ca         1 EG1      -0.020000
     10 C6           0.1920     0.5940    -2.9440 ca         1 EG1      -0.096500
     11 O3          -3.3650     0.4630    -1.9910 o          1 EG1      -0.595100
     12 N2          -1.6510     1.4230    -0.8610 ns         1 EG1      -0.499900
     13 C8          -2.4260     1.8530     0.3130 c3         1 EG1       0.101000
     14 C9          -2.7590     0.6940     1.2790 c3         1 EG1       0.139600
     15 O4          -1.5230     0.1300     1.7570 os         1 EG1      -0.458000
     16 C10         -1.6840    -0.9890     2.6530 c3         1 EG1       0.161600
     17 C11         -0.2880    -1.4890     3.0960 c3         1 EG1       0.162600
     18 O5           0.2830    -0.5390     4.0180 os         1 EG1      -0.459000
     19 C12          1.5890    -0.8960     4.5110 c3         1 EG1       0.139600
     20 C13          2.0590     0.2000     5.4960 c3         1 EG1       0.106000
     21 N3           1.1670     0.3630     6.6560 ns         1 EG1      -0.509900
     22 C14          1.0790    -0.5220     7.7100 c          1 EG1       0.600100
     23 O6           1.8040    -1.5080     7.7890 o          1 EG1      -0.596100
     24 C15         -0.0090    -0.1650     8.7820 c3         1 EG1       0.071800
     25 N4           0.1240    -0.7830    10.1480 n8         1 EG1      -0.977200
     26 HN11         1.4080    -0.3550    -8.2970 hn         1 EG1       0.475000
     27 HN12         2.6120     0.3600    -7.5590 hn         1 EG1       0.475000
     28 H2          -2.7230    -0.6920    -4.2030 ha         1 EG1       0.130500
     29 H3          -1.1900    -1.4160    -5.9890 ha         1 EG1       0.140000
     30 H5           2.1250     0.4310    -3.8940 ha         1 EG1       0.140000
     31 H6           0.6100     1.1540    -2.1120 ha         1 EG1       0.130500
     32 HN2         -0.6520     1.5820    -0.8560 hn         1 EG1       0.327500
     33 H81         -3.3620     2.3170    -0.0270 h1         1 EG1       0.067200
     34 H82         -1.8550     2.6190     0.8540 h1         1 EG1       0.067200
     35 H91         -3.3560    -0.0630     0.7540 h1         1 EG1       0.034200
     36 H92         -3.3560     1.0810     2.1150 h1         1 EG1       0.034200
     37 H101        -2.2080    -1.8090     2.1440 h1         1 EG1       0.031700
     38 H102        -2.2700    -0.7060     3.5370 h1         1 EG1       0.031700
     39 H111         0.3530    -1.6180     2.2130 h1         1 EG1       0.031700
     40 H112        -0.4010    -2.4680     3.5810 h1         1 EG1       0.031700
     41 H121         2.3080    -0.9690     3.6840 h1         1 EG1       0.031700
     42 H122         1.5590    -1.8660     5.0260 h1         1 EG1       0.031700
     43 H131         2.1240     1.1570     4.9630 h1         1 EG1       0.063700
     44 H132         3.0670    -0.0490     5.8540 h1         1 EG1       0.063700
     45 HN3          0.5190     1.1410     6.6570 hn         1 EG1       0.321500
     46 H151        -0.9820    -0.4520     8.3590 h1         1 EG1       0.040200
     47 H152        -0.0130     0.9280     8.9010 h1         1 EG1       0.040200
     48 HN41        -0.7160    -0.5740    10.7050 hn         1 EG1       0.403500
     49 HN42         0.1090    -1.8080    10.0580 hn         1 EG1       0.403500
     50 C7          -2.1690     0.7190    -1.9270 c          1 EG1       0.606700
@<TRIPOS>BOND
     1     1     2 2   
     2     1     3 2   
     3     1     4 1   
     4     1     8 1   
     5     4    26 1   
     6     4    27 1   
     7     5     6 ar  
     8     5    10 ar  
     9     5    50 1   
    10     6     7 ar  
    11     6    28 1   
    12     7     8 ar  
    13     7    29 1   
    14     8     9 ar  
    15     9    10 ar  
    16     9    30 1   
    17    10    31 1   
    18    11    50 2   
    19    12    13 1   
    20    12    32 1   
    21    12    50 1   
    22    13    14 1   
    23    13    33 1   
    24    13    34 1   
    25    14    15 1   
    26    14    35 1   
    27    14    36 1   
    28    15    16 1   
    29    16    17 1   
    30    16    37 1   
    31    16    38 1   
    32    17    18 1   
    33    17    39 1   
    34    17    40 1   
    35    18    19 1   
    36    19    20 1   
    37    19    41 1   
    38    19    42 1   
    39    20    21 1   
    40    20    43 1   
    41    20    44 1   
    42    21    22 1   
    43    21    45 1   
    44    22    23 2   
    45    22    24 1   
    46    24    25 1   
    47    24    46 1   
    48    24    47 1   
    49    25    48 1   
    50    25    49 1   
@<TRIPOS>SUBSTRUCTURE
     1 EG1         1 TEMP              0 ****  ****    0 ROOT
