@<TRIPOS>MOLECULE
EG1
   50    50     1     0     0
SMALL
bcc


@<TRIPOS>ATOM
      1 S            1.0910    -0.8050    -6.6680 sy         1 EG1       1.267200
      2 O1           1.2390    -2.2480    -6.5420 o          1 EG1      -0.612300
      3 O2           0.4970    -0.2680    -7.8830 o          1 EG1      -0.612300
      4 N1           2.5130     0.0070    -6.4620 n8         1 EG1      -0.894700
      5 C1          -1.3120     0.6620    -3.1100 ca         1 EG1      -0.095600
      6 C2          -1.1750     1.4580    -4.2460 ca         1 EG1      -0.114500
      7 C3          -0.4270     1.0210    -5.3230 ca         1 EG1      -0.038000
      8 C4           0.1660    -0.2350    -5.2680 ca         1 EG1      -0.251500
      9 C5           0.0260    -1.0490    -4.1570 ca         1 EG1      -0.038000
     10 C6          -0.7110    -0.5910    -3.0740 ca         1 EG1      -0.114500
     11 O3          -3.0940     1.9370    -2.2170 o          1 EG1      -0.595100
     12 N2          -1.8370     0.7440    -0.7630 ns         1 EG1      -0.566900
     13 C8          -2.5710     1.0940     0.4340 c3         1 EG1       0.101000
     14 C9          -2.6630    -0.0860     1.3750 c3         1 EG1       0.116400
     15 O4          -1.3630    -0.4520     1.7670 os         1 EG1      -0.411600
     16 C10         -1.3280    -1.6400     2.5190 c3         1 EG1       0.138400
     17 C11          0.0780    -1.9020     2.9920 c3         1 EG1       0.139400
     18 O5           0.4650    -0.8950     3.8930 os         1 EG1      -0.412600
     19 C12          1.7200    -1.1250     4.4860 c3         1 EG1       0.116400
     20 C13          1.9790    -0.0340     5.5000 c3         1 EG1       0.106000
     21 N3           0.9540    -0.0190     6.5180 ns         1 EG1      -0.576900
     22 C14          1.1700     0.3060     7.8030 c          1 EG1       0.667100
     23 O6           2.2680     0.6100     8.2460 o          1 EG1      -0.596100
     24 C15         -0.0580     0.2120     8.6920 c3         1 EG1       0.071800
     25 N4           0.1050     1.0160     9.8840 n8         1 EG1      -0.866800
     26 HN11         3.0260     0.0860    -7.3350 hn         1 EG1       0.419800
     27 HN12         3.1000    -0.4010    -5.7420 hn         1 EG1       0.419800
     28 H2          -1.6530     2.4270    -4.2880 ha         1 EG1       0.148500
     29 H3          -0.3210     1.6530    -6.1940 ha         1 EG1       0.158000
     30 H5           0.4720    -2.0340    -4.1240 ha         1 EG1       0.158000
     31 H6          -0.8310    -1.2460    -2.2210 ha         1 EG1       0.148500
     32 HN2         -0.9780     0.2340    -0.6340 hn         1 EG1       0.327500
     33 H81         -3.5780     1.3990     0.1550 h1         1 EG1       0.067200
     34 H82         -2.1020     1.9430     0.9390 h1         1 EG1       0.067200
     35 H91         -3.1730    -0.9190     0.8730 h1         1 EG1       0.034200
     36 H92         -3.2730     0.1970     2.2430 h1         1 EG1       0.034200
     37 H101        -1.6580    -2.4970     1.9170 h1         1 EG1       0.031700
     38 H102        -2.0030    -1.5770     3.3840 h1         1 EG1       0.031700
     39 H111         0.7660    -1.9500     2.1360 h1         1 EG1       0.031700
     40 H112         0.0950    -2.8900     3.4730 h1         1 EG1       0.031700
     41 H121         2.5220    -1.1150     3.7370 h1         1 EG1       0.031700
     42 H122         1.7440    -2.1070     4.9780 h1         1 EG1       0.031700
     43 H131         2.0410     0.9360     4.9960 h1         1 EG1       0.063700
     44 H132         2.9460    -0.2150     5.9670 h1         1 EG1       0.063700
     45 HN3          0.0050    -0.1740     6.2140 hn         1 EG1       0.321500
     46 H151        -0.2330    -0.8580     8.8820 h1         1 EG1       0.040200
     47 H152        -0.9340     0.5640     8.1410 h1         1 EG1       0.040200
     48 HN41        -0.7330     0.9410    10.4450 hn         1 EG1       0.348300
     49 HN42         0.8530     0.6360    10.4500 hn         1 EG1       0.348300
     50 C7          -2.1650     1.1760    -1.9890 c          1 EG1       0.673700
@<TRIPOS>BOND
     1     1     2 2   
     2     1     3 2   
     3     1     4 1   
     4     1     8 1   
     5     4    26 1   
     6     4    27 1   
     7     5     6 ar  
     8     5    10 ar  
     9     5    50 1   
    10     6     7 ar  
    11     6    28 1   
    12     7     8 ar  
    13     7    29 1   
    14     8     9 ar  
    15     9    10 ar  
    16     9    30 1   
    17    10    31 1   
    18    11    50 2   
    19    12    13 1   
    20    12    32 1   
    21    12    50 1   
    22    13    14 1   
    23    13    33 1   
    24    13    34 1   
    25    14    15 1   
    26    14    35 1   
    27    14    36 1   
    28    15    16 1   
    29    16    17 1   
    30    16    37 1   
    31    16    38 1   
    32    17    18 1   
    33    17    39 1   
    34    17    40 1   
    35    18    19 1   
    36    19    20 1   
    37    19    41 1   
    38    19    42 1   
    39    20    21 1   
    40    20    43 1   
    41    20    44 1   
    42    21    22 1   
    43    21    45 1   
    44    22    23 2   
    45    22    24 1   
    46    24    25 1   
    47    24    46 1   
    48    24    47 1   
    49    25    48 1   
    50    25    49 1   
@<TRIPOS>SUBSTRUCTURE
     1 EG1         1 TEMP              0 ****  ****    0 ROOT
