@<TRIPOS>MOLECULE
EG2
   43    43     1     0     0
SMALL
No Charge or Current Charge


@<TRIPOS>ATOM
      1 S            1.6540    -0.2060    -5.0500 sy         1 EG2       1.127600
      2 O1           3.0320     0.0870    -4.6640 o          1 EG2      -0.542000
      3 O2           1.3020    -1.3640    -5.8670 o          1 EG2      -0.542000
      4 N1           1.2450     1.0620    -5.9910 n8         1 EG2      -1.010100
      5 C1          -1.2120     0.2050    -1.4240 ca         1 EG2      -0.095600
      6 C2          -1.5830    -0.5480    -2.5630 ca         1 EG2      -0.097000
      7 C3          -0.7180    -0.6730    -3.6630 ca         1 EG2      -0.019000
      8 C4           0.5440    -0.0470    -3.6440 ca         1 EG2      -0.252500
      9 C5           0.9270     0.7070    -2.5180 ca         1 EG2      -0.019000
     10 C6           0.0590     0.8320    -1.4190 ca         1 EG2      -0.097000
     11 O3          -3.2760    -0.2260    -0.2650 o          1 EG2      -0.596100
     12 N2          -1.7630     1.0620     0.8260 ns         1 EG2      -0.498900
     13 C8          -2.5240     1.2180     2.0750 c3         1 EG2       0.100000
     14 C9          -2.4790    -0.0380     2.9760 c3         1 EG2       0.139600
     15 O4          -1.1080    -0.2940     3.3330 os         1 EG2      -0.461000
     16 C10         -0.9130    -1.4560     4.1650 c3         1 EG2       0.160600
     17 C11          0.5960    -1.6120     4.4740 c3         1 EG2       0.164600
     18 O5           0.9990    -0.5850     5.4030 os         1 EG2      -0.454000
     19 C12          2.3960    -0.6190     5.7590 c3         1 EG2       0.158600
     20 C13          2.6860     0.5350     6.7590 c3         1 EG2       0.152800
     21 N3           1.9070     0.4320     8.0210 n8         1 EG2      -0.998200
     22 HN11         2.1590     1.4840    -6.1360 hn         1 EG2       0.476000
     23 HN12         1.0870     0.5880    -6.8770 hn         1 EG2       0.476000
     24 H2          -2.5520    -1.0410    -2.6000 ha         1 EG2       0.130500
     25 H3          -1.0330    -1.2570    -4.5260 ha         1 EG2       0.140000
     26 H5           1.8970     1.2010    -2.4900 ha         1 EG2       0.140000
     27 H6           0.3940     1.4230    -0.5710 ha         1 EG2       0.130500
     28 HN2         -0.8370     1.4640     0.7790 hn         1 EG2       0.328500
     29 H81         -3.5700     1.4470     1.8310 h1         1 EG2       0.066200
     30 H82         -2.1180     2.0730     2.6320 h1         1 EG2       0.066200
     31 H91         -2.9080    -0.8930     2.4360 h1         1 EG2       0.034700
     32 H92         -3.0860     0.1410     3.8730 h1         1 EG2       0.034700
     33 H101        -1.2620    -2.3570     3.6450 h1         1 EG2       0.032200
     34 H102        -1.4730    -1.3660     5.1060 h1         1 EG2       0.032200
     35 H111         1.1700    -1.5460     3.5400 h1         1 EG2       0.029200
     36 H112         0.7660    -2.6050     4.9090 h1         1 EG2       0.029200
     37 H121         3.0240    -0.4860     4.8680 h1         1 EG2       0.028700
     38 H122         2.6580    -1.5790     6.2220 h1         1 EG2       0.028700
     39 H131         2.4400     1.4900     6.2740 h1         1 EG2       0.035200
     40 H132         3.7570     0.5460     7.0050 h1         1 EG2       0.035200
     41 HN31         1.9840     1.3190     8.5350 hn         1 EG2       0.398500
     42 HN32         0.9120     0.3820     7.7690 hn         1 EG2       0.398500
     43 C7          -2.1770     0.3150    -0.2560 c          1 EG2       0.606700
@<TRIPOS>BOND
     1     1     2 2   
     2     1     3 2   
     3     1     4 1   
     4     1     8 1   
     5     4    22 1   
     6     4    23 1   
     7     5     6 ar  
     8     5    10 ar  
     9     5    43 1   
    10     6     7 ar  
    11     6    24 1   
    12     7     8 ar  
    13     7    25 1   
    14     8     9 ar  
    15     9    10 ar  
    16     9    26 1   
    17    10    27 1   
    18    11    43 2   
    19    12    13 1   
    20    12    28 1   
    21    12    43 1   
    22    13    14 1   
    23    13    29 1   
    24    13    30 1   
    25    14    15 1   
    26    14    31 1   
    27    14    32 1   
    28    15    16 1   
    29    16    17 1   
    30    16    33 1   
    31    16    34 1   
    32    17    18 1   
    33    17    35 1   
    34    17    36 1   
    35    18    19 1   
    36    19    20 1   
    37    19    37 1   
    38    19    38 1   
    39    20    21 1   
    40    20    39 1   
    41    20    40 1   
    42    21    41 1   
    43    21    42 1   
@<TRIPOS>SUBSTRUCTURE
     1 EG2         1 TEMP              0 ****  ****    0 ROOT
