@<TRIPOS>MOLECULE
EG2
   43    43     1     0     0
SMALL
abcg2


@<TRIPOS>ATOM
      1 S            1.2960    -0.3790    -5.0380 sy         1 EG2       1.127600
      2 O1           1.7010    -1.7760    -5.0740 o          1 EG2      -0.542000
      3 O2           0.6730     0.2000    -6.2200 o          1 EG2      -0.542000
      4 N1           2.6230     0.4620    -4.5360 n8         1 EG2      -1.010100
      5 C1          -1.5290     0.2220    -1.5380 ca         1 EG2      -0.095600
      6 C2          -1.7670     0.8730    -2.7440 ca         1 EG2      -0.097000
      7 C3          -0.9030     0.7100    -3.8140 ca         1 EG2      -0.019000
      8 C4           0.1930    -0.1270    -3.6730 ca         1 EG2      -0.252500
      9 C5           0.4380    -0.8020    -2.4850 ca         1 EG2      -0.019000
     10 C6          -0.4250    -0.6210    -1.4190 ca         1 EG2      -0.097000
     11 O3          -3.6890     0.6410    -0.6620 o          1 EG2      -0.596100
     12 N2          -2.0040     0.3210     0.8150 ns         1 EG2      -0.498900
     13 C8          -2.7860     0.4220     2.0270 c3         1 EG2       0.100000
     14 C9          -2.3520    -0.6290     3.0250 c3         1 EG2       0.139600
     15 O4          -0.9950    -0.4200     3.3280 os         1 EG2      -0.461000
     16 C10         -0.4030    -1.4940     4.0160 c3         1 EG2       0.160600
     17 C11          1.0450    -1.1830     4.2910 c3         1 EG2       0.164600
     18 O5           1.1400    -0.1220     5.2060 os         1 EG2      -0.454000
     19 C12          2.4700     0.2190     5.5180 c3         1 EG2       0.158600
     20 C13          2.4700     1.2960     6.5790 c3         1 EG2       0.152800
     21 N3           1.9190     0.8030     7.8310 n8         1 EG2      -0.998200
     22 HN11         3.4690     0.1320    -4.9890 hn         1 EG2       0.476000
     23 HN12         2.5260     1.4650    -4.6540 hn         1 EG2       0.476000
     24 H2          -2.6290     1.5170    -2.8510 ha         1 EG2       0.130500
     25 H3          -1.0940     1.2280    -4.7440 ha         1 EG2       0.140000
     26 H5           1.2830    -1.4690    -2.3840 ha         1 EG2       0.140000
     27 H6          -0.2400    -1.1710    -0.5050 ha         1 EG2       0.130500
     28 HN2         -1.0040     0.2710     0.9320 hn         1 EG2       0.328500
     29 H81         -3.8370     0.2730     1.7870 h1         1 EG2       0.066200
     30 H82         -2.6890     1.4220     2.4620 h1         1 EG2       0.066200
     31 H91         -2.5110    -1.6280     2.5970 h1         1 EG2       0.034700
     32 H92         -2.9790    -0.5560     3.9240 h1         1 EG2       0.034700
     33 H101        -0.4490    -2.4150     3.4190 h1         1 EG2       0.032200
     34 H102        -0.9280    -1.6970     4.9600 h1         1 EG2       0.032200
     35 H111         1.5590    -0.9410     3.3490 h1         1 EG2       0.029200
     36 H112         1.5200    -2.0910     4.6870 h1         1 EG2       0.029200
     37 H121         2.9990     0.5820     4.6250 h1         1 EG2       0.028700
     38 H122         3.0200    -0.6590     5.8860 h1         1 EG2       0.028700
     39 H131         1.9600     2.1870     6.1850 h1         1 EG2       0.035200
     40 H132         3.5100     1.5870     6.7460 h1         1 EG2       0.035200
     41 HN31         1.9830     1.5270     8.5350 hn         1 EG2       0.398500
     42 HN32         0.9300     0.6210     7.7150 hn         1 EG2       0.398500
     43 C7          -2.5120     0.4150    -0.4220 c          1 EG2       0.606700
@<TRIPOS>BOND
     1     1     2 2   
     2     1     3 2   
     3     1     4 1   
     4     1     8 1   
     5     4    22 1   
     6     4    23 1   
     7     5     6 ar  
     8     5    10 ar  
     9     5    43 1   
    10     6     7 ar  
    11     6    24 1   
    12     7     8 ar  
    13     7    25 1   
    14     8     9 ar  
    15     9    10 ar  
    16     9    26 1   
    17    10    27 1   
    18    11    43 2   
    19    12    13 1   
    20    12    28 1   
    21    12    43 1   
    22    13    14 1   
    23    13    29 1   
    24    13    30 1   
    25    14    15 1   
    26    14    31 1   
    27    14    32 1   
    28    15    16 1   
    29    16    17 1   
    30    16    33 1   
    31    16    34 1   
    32    17    18 1   
    33    17    35 1   
    34    17    36 1   
    35    18    19 1   
    36    19    20 1   
    37    19    37 1   
    38    19    38 1   
    39    20    21 1   
    40    20    39 1   
    41    20    40 1   
    42    21    41 1   
    43    21    42 1   
@<TRIPOS>SUBSTRUCTURE
     1 EG2         1 TEMP              0 ****  ****    0 ROOT
