@<TRIPOS>MOLECULE
EG3
   63    64     1     0     0
SMALL
abcg2


@<TRIPOS>ATOM
      1 S            0.6840    -0.2790    -8.4020 sy         1 EG3       1.123600
      2 O1           0.8770    -1.7160    -8.5490 o          1 EG3      -0.541000
      3 O2          -0.0070     0.4360    -9.4640 o          1 EG3      -0.541000
      4 N1           2.0920     0.5400    -8.1440 n8         1 EG3      -1.005100
      5 C1          -1.4860     0.4370    -4.4830 ca         1 EG3      -0.094600
      6 C2          -1.3790     1.4580    -5.4260 ca         1 EG3      -0.096500
      7 C3          -0.7030     1.2480    -6.6130 ca         1 EG3      -0.019500
      8 C4          -0.1520    -0.0030    -6.8630 ca         1 EG3      -0.252500
      9 C5          -0.2660    -1.0380    -5.9500 ca         1 EG3      -0.019500
     10 C6          -0.9310    -0.8090    -4.7540 ca         1 EG3      -0.096500
     11 O3          -3.1700     1.5150    -3.2110 o          1 EG3      -0.592100
     12 N2          -1.8550     0.0220    -2.1440 ns         1 EG3      -0.496900
     13 C8          -2.4770     0.1660    -0.8450 c3         1 EG3       0.102000
     14 C9          -2.1630    -1.0350     0.0180 c3         1 EG3       0.141600
     15 O4          -0.7680    -1.1150     0.1740 os         1 EG3      -0.459000
     16 C10         -0.3390    -2.2920     0.8130 c3         1 EG3       0.162600
     17 C11          1.1610    -2.2630     0.9560 c3         1 EG3       0.160600
     18 O5           1.5250    -1.2230     1.8280 os         1 EG3      -0.453000
     19 C12          2.9110    -1.1320     2.0400 c3         1 EG3       0.138600
     20 C13          3.1790    -0.0060     3.0110 c3         1 EG3       0.109000
     21 N3           2.5130    -0.2500     4.2740 ns         1 EG3      -0.502900
     22 C14          2.5070     0.6400     5.2740 c          1 EG3       0.602100
     23 O6           3.1440     1.6840     5.2380 o          1 EG3      -0.599100
     24 C15          1.5950     0.2900     6.4440 c3         1 EG3       0.092500
     25 N4           2.1390     0.8530     7.6580 n8         1 EG3      -0.984200
     26 C16          0.1620     0.7550     6.0830 c3         1 EG3      -0.075100
     27 C17         -0.8170     0.4290     7.1720 ca         1 EG3      -0.088300
     28 C18         -1.1650     1.3730     8.1360 ca         1 EG3      -0.109500
     29 C19         -2.0400     1.0510     9.1660 ca         1 EG3      -0.106500
     30 C20         -2.5770    -0.2260     9.2510 ca         1 EG3      -0.108000
     31 C21         -2.2360    -1.1770     8.2960 ca         1 EG3      -0.106500
     32 C22         -1.3630    -0.8500     7.2690 ca         1 EG3      -0.109500
     33 HN11         2.5630     0.7540    -9.0190 hn         1 EG3       0.474500
     34 HN12         2.7230     0.0540    -7.5150 hn         1 EG3       0.474500
     35 H2          -1.8210     2.4250    -5.2290 ha         1 EG3       0.130500
     36 H3          -0.6130     2.0510    -7.3310 ha         1 EG3       0.140500
     37 H5           0.1460    -2.0150    -6.1570 ha         1 EG3       0.140500
     38 H6          -1.0350    -1.6290    -4.0560 ha         1 EG3       0.130500
     39 HN2         -0.9740    -0.4680    -2.1700 hn         1 EG3       0.326500
     40 H81         -3.5580     0.2390    -0.9650 h1         1 EG3       0.064700
     41 H82         -2.1420     1.0830    -0.3510 h1         1 EG3       0.064700
     42 H91         -2.5590    -1.9450    -0.4520 h1         1 EG3       0.034700
     43 H92         -2.6680    -0.9210     0.9860 h1         1 EG3       0.034700
     44 H101        -0.6170    -3.1800     0.2310 h1         1 EG3       0.032200
     45 H102        -0.8060    -2.3960     1.8020 h1         1 EG3       0.032200
     46 H111         1.6290    -2.1330    -0.0300 h1         1 EG3       0.031200
     47 H112         1.4900    -3.2380     1.3410 h1         1 EG3       0.031200
     48 H121         3.4470    -0.9230     1.1050 h1         1 EG3       0.031200
     49 H122         3.3100    -2.0780     2.4340 h1         1 EG3       0.031200
     50 H131         2.8420     0.9420     2.5820 h1         1 EG3       0.061700
     51 H132         4.2590     0.0740     3.1560 h1         1 EG3       0.061700
     52 HN3          1.9310    -1.0690     4.3510 hn         1 EG3       0.318500
     53 H15          1.5730    -0.7980     6.5590 h1         1 EG3       0.065700
     54 HN41         2.1780     1.8620     7.5840 hn         1 EG3       0.410000
     55 HN42         1.5220     0.6470     8.4340 hn         1 EG3       0.410000
     56 H161         0.1760     1.8330     5.8980 hc         1 EG3       0.061200
     57 H162        -0.1520     0.2770     5.1510 hc         1 EG3       0.061200
     58 H18         -0.7570     2.3750     8.0740 ha         1 EG3       0.110000
     59 H19         -2.3020     1.8000     9.9020 ha         1 EG3       0.114000
     60 H20         -3.2580    -0.4780    10.0530 ha         1 EG3       0.115000
     61 H21         -2.6540    -2.1750     8.3510 ha         1 EG3       0.114000
     62 H22         -1.1070    -1.5980     6.5260 ha         1 EG3       0.110000
     63 C7          -2.2490     0.7120    -3.2230 c          1 EG3       0.603700
@<TRIPOS>BOND
     1     1     2 2   
     2     1     3 2   
     3     1     4 1   
     4     1     8 1   
     5     4    33 1   
     6     4    34 1   
     7     5     6 ar  
     8     5    10 ar  
     9     5    63 1   
    10     6     7 ar  
    11     6    35 1   
    12     7     8 ar  
    13     7    36 1   
    14     8     9 ar  
    15     9    10 ar  
    16     9    37 1   
    17    10    38 1   
    18    11    63 2   
    19    12    13 1   
    20    12    39 1   
    21    12    63 1   
    22    13    14 1   
    23    13    40 1   
    24    13    41 1   
    25    14    15 1   
    26    14    42 1   
    27    14    43 1   
    28    15    16 1   
    29    16    17 1   
    30    16    44 1   
    31    16    45 1   
    32    17    18 1   
    33    17    46 1   
    34    17    47 1   
    35    18    19 1   
    36    19    20 1   
    37    19    48 1   
    38    19    49 1   
    39    20    21 1   
    40    20    50 1   
    41    20    51 1   
    42    21    22 1   
    43    21    52 1   
    44    22    23 2   
    45    22    24 1   
    46    24    25 1   
    47    24    26 1   
    48    24    53 1   
    49    25    54 1   
    50    25    55 1   
    51    26    27 1   
    52    26    56 1   
    53    26    57 1   
    54    27    28 ar  
    55    27    32 ar  
    56    28    29 ar  
    57    28    58 1   
    58    29    30 ar  
    59    29    59 1   
    60    30    31 ar  
    61    30    60 1   
    62    31    32 ar  
    63    31    61 1   
    64    32    62 1   
@<TRIPOS>SUBSTRUCTURE
     1 EG3         1 TEMP              0 ****  ****    0 ROOT
