@<TRIPOS>MOLECULE
EG3
   63    64     1     0     0
SMALL
No Charge or Current Charge


@<TRIPOS>ATOM
      1 S            1.8720    -0.3520    -8.8890 sy         1 EG3       1.123600
      2 O1           3.2160    -0.0510    -8.3990 o          1 EG3      -0.541000
      3 O2           1.6160    -1.4190    -9.8540 o          1 EG3      -0.541000
      4 N1           1.4480     1.0070    -9.6890 n8         1 EG3      -1.005100
      5 C1          -1.1660    -0.4870    -5.3840 ca         1 EG3      -0.094600
      6 C2          -1.3820    -1.2390    -6.5620 ca         1 EG3      -0.096500
      7 C3          -0.4650    -1.2010    -7.6260 ca         1 EG3      -0.019500
      8 C4           0.6950    -0.4090    -7.5300 ca         1 EG3      -0.252500
      9 C5           0.9270     0.3420    -6.3610 ca         1 EG3      -0.019500
     10 C6           0.0060     0.3050    -5.2990 ca         1 EG3      -0.096500
     11 O3          -3.1650    -1.2850    -4.3130 o          1 EG3      -0.592100
     12 N2          -1.9680     0.2600    -3.1670 ns         1 EG3      -0.496900
     13 C8          -2.8150     0.2840    -1.9640 c3         1 EG3       0.102000
     14 C9          -2.5810    -0.9250    -1.0310 c3         1 EG3       0.141600
     15 O4          -1.2240    -0.8730    -0.5530 os         1 EG3      -0.459000
     16 C10         -0.8620    -1.9440     0.3440 c3         1 EG3       0.162600
     17 C11          0.6000    -1.7380     0.8090 c3         1 EG3       0.160600
     18 O5           0.6540    -0.6160     1.7140 os         1 EG3      -0.453000
     19 C12          1.9810    -0.2510     2.1370 c3         1 EG3       0.138600
     20 C13          1.8710     0.9580     3.0930 c3         1 EG3       0.109000
     21 N3           1.1990     0.6290     4.3590 ns         1 EG3      -0.502900
     22 C14          1.8320     0.1280     5.4780 c          1 EG3       0.602100
     23 O6           3.0440    -0.0600     5.5010 o          1 EG3      -0.599100
     24 C15          0.8920    -0.2100     6.6940 c3         1 EG3       0.092500
     25 N4           1.0950    -1.5620     7.3190 n8         1 EG3      -0.984200
     26 C16          0.9860     0.8920     7.7820 c3         1 EG3      -0.075100
     27 C17          0.0470     0.6730     8.9680 ca         1 EG3      -0.088300
     28 C18          0.5680     0.4620    10.2600 ca         1 EG3      -0.109500
     29 C19         -0.2950     0.2650    11.3520 ca         1 EG3      -0.106500
     30 C20         -1.6870     0.2790    11.1600 ca         1 EG3      -0.108000
     31 C21         -2.2140     0.4940     9.8770 ca         1 EG3      -0.106500
     32 C22         -1.3510     0.6920     8.7840 ca         1 EG3      -0.109500
     33 HN11         1.3410     0.6420   -10.6320 hn         1 EG3       0.474500
     34 HN12         2.3490     1.4780    -9.7440 hn         1 EG3       0.474500
     35 H2          -2.2720    -1.8580    -6.6610 ha         1 EG3       0.130500
     36 H3          -0.6640    -1.7880    -8.5210 ha         1 EG3       0.140500
     37 H5           1.8200     0.9600    -6.2710 ha         1 EG3       0.140500
     38 H6           0.2240     0.8980    -4.4150 ha         1 EG3       0.130500
     39 HN2         -1.1370     0.8350    -3.1770 hn         1 EG3       0.326500
     40 H81         -3.8680     0.3010    -2.2720 h1         1 EG3       0.064700
     41 H82         -2.6170     1.2100    -1.4080 h1         1 EG3       0.064700
     42 H91         -2.7680    -1.8580    -1.5800 h1         1 EG3       0.034700
     43 H92         -3.2880    -0.8730    -0.1930 h1         1 EG3       0.034700
     44 H101        -0.9380    -2.9110    -0.1700 h1         1 EG3       0.032200
     45 H102        -1.5240    -1.9680     1.2190 h1         1 EG3       0.032200
     46 H111         1.2420    -1.5720    -0.0660 h1         1 EG3       0.031200
     47 H112         0.9440    -2.6500     1.3160 h1         1 EG3       0.031200
     48 H121         2.5940     0.0330     1.2720 h1         1 EG3       0.031200
     49 H122         2.4740    -1.0860     2.6520 h1         1 EG3       0.031200
     50 H131         1.3130     1.7610     2.5940 h1         1 EG3       0.061700
     51 H132         2.8780     1.3390     3.3070 h1         1 EG3       0.061700
     52 HN3          0.1910     0.7240     4.4040 hn         1 EG3       0.318500
     53 H15         -0.1340    -0.1960     6.3030 h1         1 EG3       0.065700
     54 HN41         2.0710    -1.6400     7.6310 hn         1 EG3       0.410000
     55 HN42         0.5630    -1.5940     8.1970 hn         1 EG3       0.410000
     56 H161         2.0260     0.9650     8.1250 hc         1 EG3       0.061200
     57 H162         0.7610     1.8620     7.3200 hc         1 EG3       0.061200
     58 H18          1.6440     0.4510    10.4220 ha         1 EG3       0.110000
     59 H19          0.1150     0.1030    12.3470 ha         1 EG3       0.114000
     60 H20         -2.3550     0.1270    12.0060 ha         1 EG3       0.115000
     61 H21         -3.2920     0.5080     9.7280 ha         1 EG3       0.114000
     62 H22         -1.7720     0.8630     7.7960 ha         1 EG3       0.110000
     63 C7          -2.1860    -0.5510    -4.2610 c          1 EG3       0.603700
@<TRIPOS>BOND
     1     1     2 2   
     2     1     3 2   
     3     1     4 1   
     4     1     8 1   
     5     4    33 1   
     6     4    34 1   
     7     5     6 ar  
     8     5    10 ar  
     9     5    63 1   
    10     6     7 ar  
    11     6    35 1   
    12     7     8 ar  
    13     7    36 1   
    14     8     9 ar  
    15     9    10 ar  
    16     9    37 1   
    17    10    38 1   
    18    11    63 2   
    19    12    13 1   
    20    12    39 1   
    21    12    63 1   
    22    13    14 1   
    23    13    40 1   
    24    13    41 1   
    25    14    15 1   
    26    14    42 1   
    27    14    43 1   
    28    15    16 1   
    29    16    17 1   
    30    16    44 1   
    31    16    45 1   
    32    17    18 1   
    33    17    46 1   
    34    17    47 1   
    35    18    19 1   
    36    19    20 1   
    37    19    48 1   
    38    19    49 1   
    39    20    21 1   
    40    20    50 1   
    41    20    51 1   
    42    21    22 1   
    43    21    52 1   
    44    22    23 2   
    45    22    24 1   
    46    24    25 1   
    47    24    26 1   
    48    24    53 1   
    49    25    54 1   
    50    25    55 1   
    51    26    27 1   
    52    26    56 1   
    53    26    57 1   
    54    27    28 ar  
    55    27    32 ar  
    56    28    29 ar  
    57    28    58 1   
    58    29    30 ar  
    59    29    59 1   
    60    30    31 ar  
    61    30    60 1   
    62    31    32 ar  
    63    31    61 1   
    64    32    62 1   
@<TRIPOS>SUBSTRUCTURE
     1 EG3         1 TEMP              0 ****  ****    0 ROOT
