@<TRIPOS>MOLECULE
EG5
   87    93     1     0     0
SMALL
No Charge or Current Charge


@<TRIPOS>ATOM
      1 C32         -6.1190     2.1690    -1.0400 c          1 EG5       0.615100
      2 O5          -5.1940     2.2980    -1.8260 o          1 EG5      -0.588100
      3 C33         -7.3770     3.0250    -1.1230 c3         1 EG5      -0.183100
      4 C15         -6.5930    -2.3320    -1.0760 ca         1 EG5       0.119000
      5 C19         -7.6940    -2.8720    -1.7630 ca         1 EG5      -0.111000
      6 C18         -8.0810    -2.3470    -3.0060 ca         1 EG5      -0.111000
      7 C17         -7.3610    -1.2810    -3.5670 ca         1 EG5      -0.112000
      8 C16         -6.2590    -0.7380    -2.8850 ca         1 EG5      -0.090000
      9 C14         -5.8660    -1.2500    -1.6290 ca         1 EG5      -0.053300
     10 C13         -4.6650    -0.6280    -0.9080 c3         1 EG5      -0.040100
     11 C12         -5.0600     0.2630     0.3100 c3         1 EG5       0.054700
     12 N4          -6.1280     1.2490    -0.0110 ns         1 EG5      -0.497900
     13 C11         -3.8170     0.9420     0.9870 c          1 EG5       0.590100
     14 O4          -3.6040     2.1440     0.8640 o          1 EG5      -0.575100
     15 N5          -2.9030     0.1260     1.7070 n          1 EG5      -0.397800
     16 C30         -3.2150    -1.2300     2.2060 c5         1 EG5       0.104000
     17 C29         -1.7910    -1.7870     2.4300 c5         1 EG5      -0.092400
     18 C34         -1.0880    -0.5800     3.0920 c5         1 EG5      -0.076400
     19 C35         -1.6010     0.6330     2.2400 c5         1 EG5       0.075600
     20 C31         -0.5500     1.0010     1.1270 c          1 EG5       0.585000
     21 O3          -0.6210     0.7210    -0.0660 o          1 EG5      -0.571000
     22 N3           0.5190     1.7600     1.6590 n          1 EG5      -0.379800
     23 C26         -1.8520     1.7990     3.1980 c2         1 EG5      -0.192200
     24 C28         -0.8060     2.5630     3.5650 c2         1 EG5      -0.216200
     25 C27          0.5930     2.2180     3.0610 c5         1 EG5       0.142900
     26 C24          1.4470     3.4990     2.8960 c5         1 EG5      -0.085400
     27 C9           2.5150     3.0160     1.8820 c5         1 EG5      -0.087400
     28 C10          1.6530     2.2460     0.8270 c5         1 EG5       0.033700
     29 C20          2.5250     1.1150     0.1740 c          1 EG5       0.601100
     30 O6           2.4350    -0.0860     0.4090 o          1 EG5      -0.549100
     31 N2           3.5410     1.6290    -0.6680 n          1 EG5      -0.399800
     32 C22          3.4260     2.9000    -1.4230 c5         1 EG5       0.111000
     33 C23          4.4120     2.6700    -2.5970 c5         1 EG5      -0.093400
     34 C8           5.5090     1.8080    -1.9280 c5         1 EG5      -0.043500
     35 C21          4.6480     0.7690    -1.1730 c5         1 EG5       0.026700
     36 C25          5.5650     0.1440    -0.0780 c          1 EG5       0.586000
     37 O7           5.5490     0.4340     1.1140 o          1 EG5      -0.544000
     38 C7           6.4030     1.2010    -3.0040 c2         1 EG5      -0.217200
     39 C6           6.8360    -0.0780    -3.0430 c2         1 EG5      -0.214200
     40 C5           6.5050    -1.2100    -2.0520 c5         1 EG5       0.147900
     41 C4           7.7300    -2.1710    -2.0760 c5         1 EG5      -0.089400
     42 C3           7.6480    -2.8490    -0.6960 c5         1 EG5      -0.081400
     43 C2           7.3790    -1.6290     0.2340 c5         1 EG5      -0.026300
     44 N1           6.4870    -0.7830    -0.6260 n          1 EG5      -0.380800
     45 C1           6.8000    -2.1440     1.6040 c          1 EG5       0.728000
     46 O2           7.4390    -1.9310     2.6260 o          1 EG5      -0.716500
     47 O1           5.7490    -2.7730     1.6240 o          1 EG5      -0.716500
     48 H10         -8.2500     2.3670    -1.1990 hc         1 EG5       0.055033
     49 H11         -7.5390     3.5170    -0.1570 hc         1 EG5       0.055033
     50 H9          -7.3420     3.7480    -1.9460 hc         1 EG5       0.055033
     51 H3          -7.6550    -0.8750    -4.5330 ha         1 EG5       0.115000
     52 H4          -5.7100     0.0850    -3.3360 ha         1 EG5       0.140000
     53 H7          -5.4900    -0.3940     1.0740 h1         1 EG5       0.059700
     54 H8          -6.9560     1.2520     0.5730 hn         1 EG5       0.306500
     55 H12         -3.7820    -1.1760     3.1450 h1         1 EG5       0.041200
     56 H13         -3.7740    -1.8500     1.4990 h1         1 EG5       0.041200
     57 H15         -1.7860    -2.6820     3.0620 hc         1 EG5       0.067700
     58 H14         -1.3160    -2.0530     1.4780 hc         1 EG5       0.067700
     59 H17         -1.3940    -0.4930     4.1420 hc         1 EG5       0.072700
     60 H16          0.0030    -0.6810     3.0890 hc         1 EG5       0.072700
     61 H18         -2.8540     2.0230     3.5670 ha         1 EG5       0.180000
     62 H19         -0.9570     3.4050     4.2430 ha         1 EG5       0.183000
     63 H20          1.0940     1.4740     3.6960 h1         1 EG5       0.085700
     64 H21          0.8590     4.3290     2.4830 hc         1 EG5       0.051700
     65 H22          1.8810     3.8400     3.8430 hc         1 EG5       0.051700
     66 H23          3.0830     3.8440     1.4440 hc         1 EG5       0.070700
     67 H24          3.2390     2.3510     2.3700 hc         1 EG5       0.070700
     68 H25          1.2690     2.9180     0.0510 h1         1 EG5       0.071700
     69 H27          2.4090     3.0860    -1.7900 h1         1 EG5       0.041700
     70 H26          3.7410     3.7490    -0.8030 h1         1 EG5       0.041700
     71 H28          3.9220     2.1270    -3.4160 hc         1 EG5       0.047200
     72 H29          4.7960     3.6090    -3.0090 hc         1 EG5       0.047200
     73 H30          6.1020     2.4200    -1.2350 hc         1 EG5       0.074700
     74 H31          4.2440    -0.0110    -1.8300 h1         1 EG5       0.075700
     75 H32          6.7380     1.8610    -3.8070 ha         1 EG5       0.158000
     76 H33          7.4720    -0.3420    -3.8900 ha         1 EG5       0.159000
     77 H34          5.5800    -1.7420    -2.3160 h1         1 EG5       0.061700
     78 H35          7.6810    -2.8890    -2.9030 hc         1 EG5       0.030200
     79 H42          8.6770    -1.6260    -2.1740 hc         1 EG5       0.030200
     80 H38          6.8280    -3.5760    -0.6720 hc         1 EG5       0.051200
     81 H36          8.5670    -3.3830    -0.4290 hc         1 EG5       0.051200
     82 H37          8.3110    -1.0850     0.4380 h1         1 EG5       0.044700
     83 H5          -3.9770    -1.4190    -0.5930 hc         1 EG5       0.088200
     84 H1          -8.2460    -3.7020    -1.3300 ha         1 EG5       0.123000
     85 Cl          -6.1480    -3.0510     0.4720 cl         1 EG5      -0.224000
     86 H6          -4.0760    -0.0250    -1.6090 hc         1 EG5       0.088200
     87 H2          -8.9340    -2.7680    -3.5350 ha         1 EG5       0.111000
@<TRIPOS>BOND
     1     1     2 2   
     2     1     3 1   
     3     1    12 1   
     4     3    48 1   
     5     3    49 1   
     6     3    50 1   
     7     4     5 ar  
     8     4     9 ar  
     9     4    85 1   
    10     5     6 ar  
    11     5    84 1   
    12     6     7 ar  
    13     6    87 1   
    14     7     8 ar  
    15     7    51 1   
    16     8     9 ar  
    17     8    52 1   
    18     9    10 1   
    19    10    11 1   
    20    10    83 1   
    21    10    86 1   
    22    11    12 1   
    23    11    13 1   
    24    11    53 1   
    25    12    54 1   
    26    13    14 2   
    27    13    15 1   
    28    15    16 1   
    29    15    19 1   
    30    16    17 1   
    31    16    55 1   
    32    16    56 1   
    33    17    18 1   
    34    17    57 1   
    35    17    58 1   
    36    18    19 1   
    37    18    59 1   
    38    18    60 1   
    39    19    20 1   
    40    19    23 1   
    41    20    21 2   
    42    20    22 1   
    43    22    25 1   
    44    22    28 1   
    45    23    24 2   
    46    23    61 1   
    47    24    25 1   
    48    24    62 1   
    49    25    26 1   
    50    25    63 1   
    51    26    27 1   
    52    26    64 1   
    53    26    65 1   
    54    27    28 1   
    55    27    66 1   
    56    27    67 1   
    57    28    29 1   
    58    28    68 1   
    59    29    30 2   
    60    29    31 1   
    61    31    32 1   
    62    31    35 1   
    63    32    33 1   
    64    32    69 1   
    65    32    70 1   
    66    33    34 1   
    67    33    71 1   
    68    33    72 1   
    69    34    35 1   
    70    34    38 1   
    71    34    73 1   
    72    35    36 1   
    73    35    74 1   
    74    36    37 2   
    75    36    44 1   
    76    38    39 2   
    77    38    75 1   
    78    39    40 1   
    79    39    76 1   
    80    40    41 1   
    81    40    44 1   
    82    40    77 1   
    83    41    42 1   
    84    41    78 1   
    85    41    79 1   
    86    42    43 1   
    87    42    80 1   
    88    42    81 1   
    89    43    44 1   
    90    43    45 1   
    91    43    82 1   
    92    45    46 1   
    93    45    47 1   
@<TRIPOS>SUBSTRUCTURE
     1 EG5         1 TEMP              0 ****  ****    0 ROOT
