@<TRIPOS>MOLECULE
EG5
   87    93     1     0     0
SMALL
abcg2


@<TRIPOS>ATOM
      1 C32         -5.9210     2.2370    -0.2740 c          1 EG5       0.615100
      2 O5          -5.1170     2.6740    -1.0810 o          1 EG5      -0.588100
      3 C33         -7.1750     3.0030     0.0780 c3         1 EG5      -0.183100
      4 C15         -5.9260    -1.9210    -1.8600 ca         1 EG5       0.119000
      5 C19         -6.9500    -2.3350    -2.6980 ca         1 EG5      -0.111000
      6 C18         -7.3880    -1.4920    -3.7080 ca         1 EG5      -0.111000
      7 C17         -6.7930    -0.2500    -3.8710 ca         1 EG5      -0.112000
      8 C16         -5.7720     0.1430    -3.0190 ca         1 EG5      -0.090000
      9 C14         -5.3130    -0.6750    -1.9870 ca         1 EG5      -0.053300
     10 C13         -4.1990    -0.2040    -1.0940 c3         1 EG5      -0.040100
     11 C12         -4.6650     0.1610     0.3330 c3         1 EG5       0.054700
     12 N4          -5.7910     1.0600     0.3720 ns         1 EG5      -0.497900
     13 C11         -3.4840     0.7230     1.1330 c          1 EG5       0.590100
     14 O4          -3.3000     1.9240     1.2290 o          1 EG5      -0.575100
     15 N5          -2.6570    -0.1680     1.7110 n          1 EG5      -0.397800
     16 C30         -2.7520    -1.6250     1.6640 c5         1 EG5       0.104000
     17 C29         -1.3260    -2.0860     1.9270 c5         1 EG5      -0.092400
     18 C34         -0.7860    -1.0060     2.8510 c5         1 EG5      -0.076400
     19 C35         -1.4200     0.2990     2.3150 c5         1 EG5       0.075600
     20 C31         -0.5180     0.8740     1.2190 c          1 EG5       0.585000
     21 O3          -0.6300     0.5420     0.0490 o          1 EG5      -0.571000
     22 N3           0.4200     1.7280     1.6390 n          1 EG5      -0.379800
     23 C26         -1.6150     1.2790     3.4370 c2         1 EG5      -0.192200
     24 C28         -0.6600     2.1320     3.7780 c2         1 EG5      -0.216200
     25 C27          0.6060     2.2120     2.9960 c5         1 EG5       0.142900
     26 C24          1.1740     3.6050     2.7440 c5         1 EG5      -0.085400
     27 C9           2.1030     3.3730     1.5540 c5         1 EG5      -0.087400
     28 C10          1.3920     2.2780     0.7260 c5         1 EG5       0.033700
     29 C20          2.3790     1.2000     0.2980 c          1 EG5       0.601100
     30 O6           2.5140     0.1750     0.9460 o          1 EG5      -0.549100
     31 N2           3.1380     1.4690    -0.7770 n          1 EG5      -0.399800
     32 C22          2.9320     2.5170    -1.7750 c5         1 EG5       0.111000
     33 C23          3.5760     1.9250    -3.0220 c5         1 EG5      -0.093400
     34 C8           4.7640     1.1630    -2.4410 c5         1 EG5      -0.043500
     35 C21          4.1730     0.5420    -1.1710 c5         1 EG5       0.026700
     36 C25          5.2800     0.3880    -0.1490 c          1 EG5       0.586000
     37 O7           5.4440     1.1900     0.7570 o          1 EG5      -0.544000
     38 C7           5.3890     0.1340    -3.3220 c2         1 EG5      -0.217200
     39 C6           5.9020    -1.0200    -2.9060 c2         1 EG5      -0.214200
     40 C5           6.0620    -1.5710    -1.5130 c5         1 EG5       0.147900
     41 C4           7.4160    -2.2830    -1.4020 c5         1 EG5      -0.089400
     42 C3           7.7000    -2.2890     0.0880 c5         1 EG5      -0.081400
     43 C2           7.1810    -0.9300     0.5660 c5         1 EG5      -0.026300
     44 N1           6.1220    -0.6270    -0.3920 n          1 EG5      -0.380800
     45 C1           6.6890    -1.0380     2.0270 c          1 EG5       0.728000
     46 O2           7.4920    -0.6380     2.8950 o          1 EG5      -0.716500
     47 O1           5.5900    -1.5850     2.2070 o          1 EG5      -0.716500
     48 H10         -7.9110     2.4160     0.6240 hc         1 EG5       0.055033
     49 H11         -6.9050     3.8630     0.6930 hc         1 EG5       0.055033
     50 H9          -7.6380     3.3850    -0.8310 hc         1 EG5       0.055033
     51 H3          -7.1220     0.4130    -4.6590 ha         1 EG5       0.115000
     52 H4          -5.3150     1.1150    -3.1500 ha         1 EG5       0.140000
     53 H7          -5.0170    -0.7500     0.8190 h1         1 EG5       0.059700
     54 H8          -6.5050     0.8250     1.0400 hn         1 EG5       0.306500
     55 H12         -3.4330    -1.9880     2.4380 h1         1 EG5       0.041200
     56 H13         -3.1150    -1.9840     0.7040 h1         1 EG5       0.041200
     57 H15         -1.2950    -3.0780     2.3740 hc         1 EG5       0.067700
     58 H14         -0.7600    -2.1170     0.9960 hc         1 EG5       0.067700
     59 H17         -1.1310    -1.1740     3.8740 hc         1 EG5       0.072700
     60 H16          0.3020    -0.9450     2.8730 hc         1 EG5       0.072700
     61 H18         -2.5240     1.1900     4.0200 ha         1 EG5       0.180000
     62 H19         -0.7560     2.7710     4.6470 ha         1 EG5       0.183000
     63 H20          1.3760     1.6090     3.4980 h1         1 EG5       0.085700
     64 H21          0.3660     4.2920     2.4840 hc         1 EG5       0.051700
     65 H22          1.6950     4.0030     3.6140 hc         1 EG5       0.051700
     66 H23          2.2730     4.2720     0.9640 hc         1 EG5       0.070700
     67 H24          3.0780     3.0210     1.8990 hc         1 EG5       0.070700
     68 H25          0.8790     2.7120    -0.1340 h1         1 EG5       0.071700
     69 H27          1.8750     2.7290    -1.9250 h1         1 EG5       0.041700
     70 H26          3.4270     3.4460    -1.4790 h1         1 EG5       0.041700
     71 H28          2.8840     1.2380    -3.5160 hc         1 EG5       0.047200
     72 H29          3.8700     2.6890    -3.7400 hc         1 EG5       0.047200
     73 H30          5.5190     1.9100    -2.1600 hc         1 EG5       0.074700
     74 H31          3.7340    -0.4350    -1.4080 h1         1 EG5       0.075700
     75 H32          5.4150     0.3520    -4.3840 ha         1 EG5       0.158000
     76 H33          6.2780    -1.7000    -3.6650 ha         1 EG5       0.159000
     77 H34          5.2630    -2.3050    -1.3350 h1         1 EG5       0.061700
     78 H35          7.3800    -3.2770    -1.8470 hc         1 EG5       0.030200
     79 H42          8.1760    -1.7040    -1.9340 hc         1 EG5       0.030200
     80 H38          7.1370    -3.0920     0.5680 hc         1 EG5       0.051200
     81 H36          8.7550    -2.4320     0.3220 hc         1 EG5       0.051200
     82 H37          7.9730    -0.1770     0.4920 h1         1 EG5       0.044700
     83 H5          -3.4300    -0.9730    -1.0170 hc         1 EG5       0.088200
     84 H1          -7.3970    -3.3110    -2.5670 ha         1 EG5       0.123000
     85 CL          -5.3990    -3.0380    -0.6330 cl         1 EG5      -0.224000
     86 H6          -3.7180     0.6600    -1.5470 hc         1 EG5       0.088200
     87 H2          -8.1860    -1.8140    -4.3640 ha         1 EG5       0.111000
@<TRIPOS>BOND
     1     1     2 2   
     2     1     3 1   
     3     1    12 1   
     4     3    48 1   
     5     3    49 1   
     6     3    50 1   
     7     4     5 ar  
     8     4     9 ar  
     9     4    85 1   
    10     5     6 ar  
    11     5    84 1   
    12     6     7 ar  
    13     6    87 1   
    14     7     8 ar  
    15     7    51 1   
    16     8     9 ar  
    17     8    52 1   
    18     9    10 1   
    19    10    11 1   
    20    10    83 1   
    21    10    86 1   
    22    11    12 1   
    23    11    13 1   
    24    11    53 1   
    25    12    54 1   
    26    13    14 2   
    27    13    15 1   
    28    15    16 1   
    29    15    19 1   
    30    16    17 1   
    31    16    55 1   
    32    16    56 1   
    33    17    18 1   
    34    17    57 1   
    35    17    58 1   
    36    18    19 1   
    37    18    59 1   
    38    18    60 1   
    39    19    20 1   
    40    19    23 1   
    41    20    21 2   
    42    20    22 1   
    43    22    25 1   
    44    22    28 1   
    45    23    24 2   
    46    23    61 1   
    47    24    25 1   
    48    24    62 1   
    49    25    26 1   
    50    25    63 1   
    51    26    27 1   
    52    26    64 1   
    53    26    65 1   
    54    27    28 1   
    55    27    66 1   
    56    27    67 1   
    57    28    29 1   
    58    28    68 1   
    59    29    30 2   
    60    29    31 1   
    61    31    32 1   
    62    31    35 1   
    63    32    33 1   
    64    32    69 1   
    65    32    70 1   
    66    33    34 1   
    67    33    71 1   
    68    33    72 1   
    69    34    35 1   
    70    34    38 1   
    71    34    73 1   
    72    35    36 1   
    73    35    74 1   
    74    36    37 2   
    75    36    44 1   
    76    38    39 2   
    77    38    75 1   
    78    39    40 1   
    79    39    76 1   
    80    40    41 1   
    81    40    44 1   
    82    40    77 1   
    83    41    42 1   
    84    41    78 1   
    85    41    79 1   
    86    42    43 1   
    87    42    80 1   
    88    42    81 1   
    89    43    44 1   
    90    43    45 1   
    91    43    82 1   
    92    45    46 1   
    93    45    47 1   
@<TRIPOS>SUBSTRUCTURE
     1 EG5         1 TEMP              0 ****  ****    0 ROOT
