@<TRIPOS>MOLECULE
EG6
   37    38     1     0     0
SMALL
abcg2


@<TRIPOS>ATOM
      1 O01          3.8710    -2.0850     0.4040 o          1 EG6      -0.645100
      2 C02          3.1810    -1.0970     0.1740 c          1 EG6       0.625700
      3 N03          3.6840     0.1280    -0.0050 ns         1 EG6      -0.448900
      4 C04          5.0700     0.4760     0.2070 c3         1 EG6      -0.048300
      5 C05          5.9670     0.0570    -0.9460 c3         1 EG6       0.164600
      6 O06          5.5850     0.7730    -2.0980 oh         1 EG6      -0.645000
      7 C10          1.7090    -1.2240     0.0840 cc         1 EG6      -0.274600
      8 C11          0.9800    -2.3830    -0.0270 cd         1 EG6       0.328300
      9 C12          1.5080    -3.7760    -0.1190 c3         1 EG6      -0.112400
     10 N13         -0.3670    -2.1960    -0.0530 nd         1 EG6      -0.662000
     11 C14         -0.7020    -0.9450     0.0410 cc         1 EG6       0.431900
     12 C15         -2.0860    -0.4750     0.0550 ca         1 EG6      -0.077500
     13 C16         -3.1240    -1.4060     0.0200 ca         1 EG6      -0.097500
     14 C17         -4.4430    -0.9890     0.0380 ca         1 EG6      -0.067000
     15 C18         -4.7430     0.3670     0.0880 ca         1 EG6      -0.203300
     16 C19         -6.1620     0.8390     0.1530 c3         1 EG6       0.356300
     17 F20         -7.0310    -0.0930    -0.2480 f          1 EG6      -0.117667
     18 F21         -6.5080     1.1820     1.4030 f          1 EG6      -0.117667
     19 F22         -6.3630     1.9210    -0.6090 f          1 EG6      -0.117667
     20 C23         -3.7150     1.3030     0.1240 ca         1 EG6      -0.067000
     21 C24         -2.3980     0.8840     0.1060 ca         1 EG6      -0.097500
     22 S25          0.6400     0.1240     0.1670 ss         1 EG6       0.062600
     23 H1           5.4390    -0.0300     1.1050 h1         1 EG6       0.057700
     24 H2           7.0040     0.2650    -0.6590 h1         1 EG6       0.016700
     25 H3           5.8870    -1.0250    -1.0990 h1         1 EG6       0.016700
     26 H4           6.1540     0.4990    -2.8230 ho         1 EG6       0.411000
     27 H5           1.9120    -4.1070     0.8370 hc         1 EG6       0.052033
     28 H6           0.7030    -4.4510    -0.4000 hc         1 EG6       0.052033
     29 H7           2.3080    -3.8600    -0.8520 hc         1 EG6       0.052033
     30 H8          -2.8990    -2.4620    -0.0200 ha         1 EG6       0.137500
     31 H9          -5.2250    -1.7340     0.0110 ha         1 EG6       0.126000
     32 H10         -3.9250     2.3630     0.1630 ha         1 EG6       0.126000
     33 H11         -1.6180     1.6350     0.1290 ha         1 EG6       0.137500
     34 C1           5.1670     2.0090     0.4340 c          1 EG6       0.729000
     35 O2           6.2980     2.4360     0.7170 o          1 EG6      -0.718500
     36 O1           4.1140     2.6650     0.3130 o          1 EG6      -0.718500
     37 H12          3.0990     0.9420    -0.1510 hn         1 EG6       0.348500
@<TRIPOS>BOND
     1     1     2 2   
     2     2     3 1   
     3     2     7 1   
     4     3     4 1   
     5     3    37 1   
     6     4     5 1   
     7     4    23 1   
     8     4    34 1   
     9     5     6 1   
    10     5    24 1   
    11     5    25 1   
    12     6    26 1   
    13     7     8 2   
    14     7    22 1   
    15     8     9 1   
    16     8    10 1   
    17     9    27 1   
    18     9    28 1   
    19     9    29 1   
    20    10    11 2   
    21    11    12 1   
    22    11    22 1   
    23    12    13 ar  
    24    12    21 ar  
    25    13    14 ar  
    26    13    30 1   
    27    14    15 ar  
    28    14    31 1   
    29    15    16 1   
    30    15    20 ar  
    31    16    17 1   
    32    16    18 1   
    33    16    19 1   
    34    20    21 ar  
    35    20    32 1   
    36    21    33 1   
    37    34    35 1   
    38    34    36 1   
@<TRIPOS>SUBSTRUCTURE
     1 EG6         1 TEMP              0 ****  ****    0 ROOT
