@<TRIPOS>MOLECULE
EG6
   37    38     1     0     0
SMALL
No Charge or Current Charge


@<TRIPOS>ATOM
      1 O01          3.9870    -2.1760     0.1820 o          1 EG6      -0.645100
      2 C02          3.2340    -1.2130     0.1760 c          1 EG6       0.625700
      3 N03          3.7060     0.0770     0.2130 ns         1 EG6      -0.448900
      4 C04          5.1380     0.4790     0.1930 c3         1 EG6      -0.048300
      5 C05          5.8150     0.2280    -1.1770 c3         1 EG6       0.164600
      6 O06          5.1180     0.9070    -2.2310 oh         1 EG6      -0.645000
      7 C10          1.7610    -1.2960     0.1420 cc         1 EG6      -0.274600
      8 C11          1.0330    -2.4660     0.1050 cd         1 EG6       0.328300
      9 C12          1.5570    -3.8790     0.0940 c3         1 EG6      -0.112400
     10 N13         -0.3420    -2.2860     0.0760 nd         1 EG6      -0.662000
     11 C14         -0.6480    -0.9920     0.0900 cc         1 EG6       0.431900
     12 C15         -2.0420    -0.5010     0.0640 ca         1 EG6      -0.077500
     13 C16         -3.1220    -1.4120     0.0090 ca         1 EG6      -0.097500
     14 C17         -4.4520    -0.9590    -0.0150 ca         1 EG6      -0.067000
     15 C18         -4.7420     0.4200     0.0110 ca         1 EG6      -0.203300
     16 C19         -6.1930     0.9160    -0.0040 c3         1 EG6       0.356300
     17 F20         -7.0190     0.0720    -0.6640 f          1 EG6      -0.117667
     18 F21         -6.6800     1.0440     1.2510 f          1 EG6      -0.117667
     19 F22         -6.3180     2.1230    -0.6020 f          1 EG6      -0.117667
     20 C23         -3.6710     1.3340     0.0780 ca         1 EG6      -0.067000
     21 C24         -2.3400     0.8810     0.1010 ca         1 EG6      -0.097500
     22 S25          0.7160     0.1010     0.1390 ss         1 EG6       0.062600
     23 H1           5.6620    -0.1320     0.9390 h1         1 EG6       0.057700
     24 H2           6.8590     0.5670    -1.1320 h1         1 EG6       0.016700
     25 H3           5.8310    -0.8510    -1.3760 h1         1 EG6       0.016700
     26 H4           5.5720     0.6730    -3.0690 ho         1 EG6       0.411000
     27 H5           2.1490    -4.0840     0.9930 hc         1 EG6       0.052033
     28 H6           0.7420    -4.6110     0.0610 hc         1 EG6       0.052033
     29 H7           2.1920    -4.0530    -0.7820 hc         1 EG6       0.052033
     30 H8          -2.9370    -2.4840    -0.0150 ha         1 EG6       0.137500
     31 H9          -5.2570    -1.6910    -0.0520 ha         1 EG6       0.126000
     32 H10         -3.8640     2.4050     0.1140 ha         1 EG6       0.126000
     33 H11         -1.5490     1.6250     0.1510 ha         1 EG6       0.137500
     34 C1           5.3180     1.9590     0.6430 c          1 EG6       0.729000
     35 O2           6.4070     2.2910     1.0900 o          1 EG6      -0.718500
     36 O1           4.3370     2.6940     0.6610 o          1 EG6      -0.718500
     37 H12          3.0160     0.8180     0.2060 hn         1 EG6       0.348500
@<TRIPOS>BOND
     1     1     2 2   
     2     2     3 1   
     3     2     7 1   
     4     3     4 1   
     5     3    37 1   
     6     4     5 1   
     7     4    23 1   
     8     4    34 1   
     9     5     6 1   
    10     5    24 1   
    11     5    25 1   
    12     6    26 1   
    13     7     8 2   
    14     7    22 1   
    15     8     9 1   
    16     8    10 1   
    17     9    27 1   
    18     9    28 1   
    19     9    29 1   
    20    10    11 2   
    21    11    12 1   
    22    11    22 1   
    23    12    13 ar  
    24    12    21 ar  
    25    13    14 ar  
    26    13    30 1   
    27    14    15 ar  
    28    14    31 1   
    29    15    16 1   
    30    15    20 ar  
    31    16    17 1   
    32    16    18 1   
    33    16    19 1   
    34    20    21 ar  
    35    20    32 1   
    36    21    33 1   
    37    34    35 1   
    38    34    36 1   
@<TRIPOS>SUBSTRUCTURE
     1 EG6         1 TEMP              0 ****  ****    0 ROOT
