@<TRIPOS>MOLECULE
EG7
   59    62     1     0     0
SMALL
No Charge or Current Charge


@<TRIPOS>ATOM
      1 C7          -3.2040    -0.1160     0.8570 ca         1 EG7      -0.094300
      2 C6           1.2680    -4.6050    -0.5870 cc         1 EG7      -0.263000
      3 C1          -3.6500    -2.4110     0.1440 ca         1 EG7      -0.131000
      4 C5           4.8450    -1.4580    -0.8120 ca         1 EG7      -0.221000
      5 C4          -4.7190    -1.9630    -0.6500 ca         1 EG7      -0.087000
      6 C3           5.4510    -0.2000    -0.6470 ca         1 EG7      -0.090000
      7 C2          -2.8970    -1.4930     0.8960 ca         1 EG7      -0.083000
      8 C8           4.6910     0.8250    -0.0630 ca         1 EG7       0.116000
      9 C9          -4.2790     0.3280     0.0590 ca         1 EG7       0.210000
     10 C10         -5.0350    -0.5940    -0.6930 ca         1 EG7       0.060000
     11 C11          3.3520     0.5520     0.3220 ca         1 EG7       0.405300
     12 C12          0.2240    -4.9860     0.1980 cd         1 EG7      -0.139300
     13 C13          3.5250    -1.6470    -0.3720 ca         1 EG7       0.595900
     14 C14          1.8080    -3.4610     0.0010 cc         1 EG7       0.513900
     15 C15          2.3320     3.2700    -0.9710 c          1 EG7       0.720000
     16 C16          0.5280     1.4570    -0.7990 c6         1 EG7      -0.043400
     17 C17          0.5170     3.3290     0.8240 c6         1 EG7      -0.046400
     18 C18         -0.4720     0.6940     0.1010 c6         1 EG7       0.153800
     19 C19         -0.5420     2.5750     1.6930 c6         1 EG7       0.178500
     20 C20          1.4810     2.3960     0.0110 c6         1 EG7      -0.165000
     21 C22         -1.4130     3.6250     2.4460 c3         1 EG7      -0.092100
     22 C23         -2.3700     0.8730     1.6690 c3         1 EG7       0.218100
     23 C24          2.4580     1.6100     0.9800 c3         1 EG7      -0.110700
     24 N25          2.7930    -0.6770     0.1820 nb         1 EG7      -0.712000
     25 N26          1.2140    -3.0870     1.1080 nd         1 EG7      -0.500800
     26 N27          0.2050    -4.0450     1.2380 na         1 EG7      -0.015200
     27 N28         -1.3540     1.6170     0.8730 n3         1 EG7      -0.709600
     28 N29          2.8990    -2.8580    -0.5520 nu         1 EG7      -0.914800
     29 F33         -4.5930     1.6460     0.0160 f          1 EG7      -0.147000
     30 Cl1         -6.3820    -0.0520    -1.6950 cl         1 EG7      -0.190000
     31 H40          1.6210    -5.0790    -1.4960 ha         1 EG7       0.139000
     32 H35         -3.4040    -3.4700     0.1770 ha         1 EG7       0.109000
     33 H39          5.3960    -2.2760    -1.2670 ha         1 EG7       0.105000
     34 H38         -5.3010    -2.6740    -1.2320 ha         1 EG7       0.121000
     35 H37          6.4770    -0.0230    -0.9610 ha         1 EG7       0.121000
     36 H36         -2.0690    -1.8480     1.5040 ha         1 EG7       0.112000
     37 H41          1.0990     0.7340    -1.3950 hc         1 EG7       0.054700
     38 H42         -0.0420     2.0500    -1.5270 hc         1 EG7       0.054700
     39 H44         -0.0110     3.9950     0.1270 hc         1 EG7       0.052700
     40 H43          1.1080     3.9880     1.4750 hc         1 EG7       0.052700
     41 H45         -1.0710     0.0490    -0.5570 h1         1 EG7       0.027200
     42 H46          0.0760     0.0280     0.7830 h1         1 EG7       0.027200
     43 H47         -0.0040     2.0120     2.4690 h1         1 EG7       0.009700
     44 H49         -0.6790    -6.8050     0.9280 hc         1 EG7       0.044700
     45 H48         -1.7680    -5.7840    -0.0300 hc         1 EG7       0.044700
     46 H50         -0.5090    -6.7360    -0.8340 hc         1 EG7       0.044700
     47 H51         -2.0850     4.1520     1.7590 hc         1 EG7       0.028367
     48 H52         -2.0220     3.1640     3.2320 hc         1 EG7       0.028367
     49 H53         -0.7860     4.3770     2.9400 hc         1 EG7       0.028367
     50 H55         -3.0710     1.5710     2.1430 h1         1 EG7       0.031200
     51 H54         -1.8730     0.3270     2.4820 h1         1 EG7       0.031200
     52 H57          1.8850     1.1180     1.7730 hc         1 EG7       0.048200
     53 H56          3.0880     2.3300     1.5150 hc         1 EG7       0.048200
     54 H58         -0.4420    -4.0300     2.0250 hn         1 EG7       0.363000
     55 H59          3.3650    -3.4510    -1.2260 hn         1 EG7       0.487000
     56 O30          2.8900     4.2510    -0.4990 o          1 EG7      -0.726000
     57 O31          2.7680     2.7220    -1.9730 o          1 EG7      -0.726000
     58 F32          5.2520     2.0420     0.1330 f          1 EG7      -0.151000
     59 C21         -0.7340    -6.1390     0.0590 c3         1 EG7      -0.027800
@<TRIPOS>BOND
     1     1     7 ar  
     2     1     9 ar  
     3     1    22 1   
     4     2    12 2   
     5     2    14 1   
     6     2    31 1   
     7     3     5 ar  
     8     3     7 ar  
     9     3    32 1   
    10     4     6 ar  
    11     4    13 ar  
    12     4    33 1   
    13     5    10 ar  
    14     5    34 1   
    15     6     8 ar  
    16     6    35 1   
    17     7    36 1   
    18     8    11 ar  
    19     8    58 1   
    20     9    10 ar  
    21     9    29 1   
    22    10    30 1   
    23    11    23 1   
    24    11    24 ar  
    25    12    26 1   
    26    12    59 1   
    27    13    24 ar  
    28    13    28 1   
    29    14    25 2   
    30    14    28 1   
    31    15    20 1   
    32    15    56 1   
    33    15    57 1   
    34    16    18 1   
    35    16    20 1   
    36    16    37 1   
    37    16    38 1   
    38    17    19 1   
    39    17    20 1   
    40    17    39 1   
    41    17    40 1   
    42    18    27 1   
    43    18    41 1   
    44    18    42 1   
    45    19    21 1   
    46    19    27 1   
    47    19    43 1   
    48    20    23 1   
    49    21    47 1   
    50    21    48 1   
    51    21    49 1   
    52    22    27 1   
    53    22    50 1   
    54    22    51 1   
    55    23    52 1   
    56    23    53 1   
    57    25    26 1   
    58    26    54 1   
    59    28    55 1   
    60    44    59 1   
    61    45    59 1   
    62    46    59 1   
@<TRIPOS>SUBSTRUCTURE
     1 EG7         1 TEMP              0 ****  ****    0 ROOT
