@<TRIPOS>MOLECULE
EG7
   59    62     1     0     0
SMALL
abcg2


@<TRIPOS>ATOM
      1 C7          -3.0720    -0.3770     0.7270 ca         1 EG7      -0.094300
      2 C6           1.1180    -4.1820    -0.4260 cc         1 EG7      -0.263000
      3 C1          -3.8330    -2.4560    -0.2570 ca         1 EG7      -0.131000
      4 C5           4.9350    -1.3160    -0.8990 ca         1 EG7      -0.221000
      5 C4          -4.7690    -1.7780    -1.0210 ca         1 EG7      -0.087000
      6 C3           5.3780    -0.0110    -0.8880 ca         1 EG7      -0.090000
      7 C2          -2.9970    -1.7590     0.6040 ca         1 EG7      -0.083000
      8 C8           4.5940     0.9520    -0.2780 ca         1 EG7       0.116000
      9 C9          -4.0180     0.2820    -0.0440 ca         1 EG7       0.210000
     10 C10         -4.8590    -0.3990    -0.9080 ca         1 EG7       0.060000
     11 C11          3.3900     0.6110     0.3080 ca         1 EG7       0.405300
     12 C12          0.0970    -4.3790     0.4780 cd         1 EG7      -0.139300
     13 C13          3.7090    -1.5980    -0.2760 ca         1 EG7       0.595900
     14 C14          2.0210    -3.3250     0.2370 cc         1 EG7       0.513900
     15 C15          2.1670     3.1690    -0.9700 c          1 EG7       0.720000
     16 C16          0.6120     1.1810    -0.7440 c6         1 EG7      -0.043400
     17 C17          0.4240     3.0310     0.8640 c6         1 EG7      -0.046400
     18 C18         -0.2910     0.3670     0.1620 c6         1 EG7       0.153800
     19 C19         -0.5180     2.1860     1.7270 c6         1 EG7       0.178500
     20 C20          1.4160     2.2330     0.0130 c6         1 EG7      -0.165000
     21 C22         -1.4750     3.1260     2.4540 c3         1 EG7      -0.092100
     22 C23         -2.1600     0.3980     1.6410 c3         1 EG7       0.218100
     23 C24          2.4780     1.6060     0.9580 c3         1 EG7      -0.110700
     24 N25          2.9870    -0.6600     0.3070 nb         1 EG7      -0.712000
     25 N26          1.5980    -3.0190     1.4460 nd         1 EG7      -0.500800
     26 N27          0.4290    -3.6530     1.5600 na         1 EG7      -0.015200
     27 N28         -1.2240     1.2140     0.8940 n3         1 EG7      -0.709600
     28 N29          3.2430    -2.8940    -0.2650 nu         1 EG7      -0.914800
     29 F33         -4.1430     1.6070     0.0540 f          1 EG7      -0.147000
     30 CL1         -6.0140     0.4890    -1.8330 cl         1 EG7      -0.190000
     31 H40          1.2020    -4.5910    -1.4200 ha         1 EG7       0.139000
     32 H35         -3.7570    -3.5320    -0.3410 ha         1 EG7       0.109000
     33 H39          5.5210    -2.0960    -1.3680 ha         1 EG7       0.105000
     34 H38         -5.4250    -2.3080    -1.6980 ha         1 EG7       0.121000
     35 H37          6.3220     0.2580    -1.3460 ha         1 EG7       0.121000
     36 H36         -2.2570    -2.2920     1.1870 ha         1 EG7       0.112000
     37 H41          1.2630     0.5060    -1.2980 hc         1 EG7       0.054700
     38 H42         -0.0150     1.6880    -1.4840 hc         1 EG7       0.054700
     39 H44         -0.1990     3.6440     0.2020 hc         1 EG7       0.052700
     40 H43          0.9570     3.7240     1.5180 hc         1 EG7       0.052700
     41 H45         -0.8630    -0.3250    -0.4610 h1         1 EG7       0.027200
     42 H46          0.3090    -0.2620     0.8390 h1         1 EG7       0.027200
     43 H47          0.0780     1.6640     2.4990 h1         1 EG7       0.009700
     44 H49         -0.9660    -6.2060     0.8100 hc         1 EG7       0.044700
     45 H48         -1.9560    -4.7640     0.9670 hc         1 EG7       0.044700
     46 H50         -1.4570    -5.3220    -0.6290 hc         1 EG7       0.044700
     47 H51         -2.1990     3.5520     1.7570 hc         1 EG7       0.028367
     48 H52         -2.0250     2.6440     3.2630 hc         1 EG7       0.028367
     49 H53         -0.9120     3.9470     2.9010 hc         1 EG7       0.028367
     50 H55         -2.7740     1.0340     2.2790 h1         1 EG7       0.031200
     51 H54         -1.6490    -0.3140     2.3120 h1         1 EG7       0.031200
     52 H57          1.9790     1.0810     1.7740 hc         1 EG7       0.048200
     53 H56          3.0500     2.4190     1.4100 hc         1 EG7       0.048200
     54 H58         -0.0920    -3.5710     2.4180 hn         1 EG7       0.363000
     55 H59          3.6810    -3.5210    -0.9200 hn         1 EG7       0.487000
     56 O30          2.4080     4.3290    -0.5750 o          1 EG7      -0.726000
     57 O31          2.4940     2.6900    -2.0740 o          1 EG7      -0.726000
     58 F32          5.0290     2.2250    -0.2440 f          1 EG7      -0.151000
     59 C21         -1.1350    -5.2080     0.4040 c3         1 EG7      -0.027800
@<TRIPOS>BOND
     1     1     7 ar  
     2     1     9 ar  
     3     1    22 1   
     4     2    12 2   
     5     2    14 1   
     6     2    31 1   
     7     3     5 ar  
     8     3     7 ar  
     9     3    32 1   
    10     4     6 ar  
    11     4    13 ar  
    12     4    33 1   
    13     5    10 ar  
    14     5    34 1   
    15     6     8 ar  
    16     6    35 1   
    17     7    36 1   
    18     8    11 ar  
    19     8    58 1   
    20     9    10 ar  
    21     9    29 1   
    22    10    30 1   
    23    11    23 1   
    24    11    24 ar  
    25    12    26 1   
    26    12    59 1   
    27    13    24 ar  
    28    13    28 1   
    29    14    25 2   
    30    14    28 1   
    31    15    20 1   
    32    15    56 1   
    33    15    57 1   
    34    16    18 1   
    35    16    20 1   
    36    16    37 1   
    37    16    38 1   
    38    17    19 1   
    39    17    20 1   
    40    17    39 1   
    41    17    40 1   
    42    18    27 1   
    43    18    41 1   
    44    18    42 1   
    45    19    21 1   
    46    19    27 1   
    47    19    43 1   
    48    20    23 1   
    49    21    47 1   
    50    21    48 1   
    51    21    49 1   
    52    22    27 1   
    53    22    50 1   
    54    22    51 1   
    55    23    52 1   
    56    23    53 1   
    57    25    26 1   
    58    26    54 1   
    59    28    55 1   
    60    44    59 1   
    61    45    59 1   
    62    46    59 1   
@<TRIPOS>SUBSTRUCTURE
     1 EG7         1 TEMP              0 ****  ****    0 ROOT
