@<TRIPOS>MOLECULE
EG8
   43    45     1     0     0
SMALL
bcc


@<TRIPOS>ATOM
      1 N01          5.3860    -3.0300     0.0220 nc         1 EG8      -0.669000
      2 C02          4.5460    -2.0540     0.1930 cd         1 EG8       0.430400
      3 N03          5.1280    -0.8450    -0.0550 na         1 EG8      -0.241700
      4 C04          6.4350    -1.0930    -0.4090 cd         1 EG8      -0.223600
      5 C05          6.5690    -2.4430    -0.3530 cc         1 EG8       0.294200
      6 N1          -7.9010     0.4680    -0.7310 nb         1 EG8      -0.664000
      7 N11          3.2520     0.4040     0.4320 nb         1 EG8      -0.737000
      8 C12          4.5050     0.4050     0.0240 ca         1 EG8       0.768500
      9 N13          5.2360     1.4460    -0.3210 nb         1 EG8      -0.720000
     10 C14          4.6250     2.6220    -0.2480 ca         1 EG8       0.467200
     11 C15          3.3080     2.7490     0.1530 ca         1 EG8      -0.382600
     12 C16          2.6360     1.5810     0.4970 ca         1 EG8       0.488600
     13 C17          1.2060     1.5860     0.9340 c3         1 EG8      -0.138700
     14 C18          0.3230     0.7570     0.0030 c3         1 EG8       0.163800
     15 N19         -1.0650     0.8410     0.4110 n7         1 EG8      -0.807200
     16 C2          -6.6330     0.2780    -1.0790 ca         1 EG8       0.404200
     17 C20         -1.9380     0.0310    -0.4170 c3         1 EG8       0.158800
     18 C21         -3.3900     0.1710     0.0090 c3         1 EG8      -0.077400
     19 C22         -4.3230    -0.7000    -0.8340 c3         1 EG8      -0.027100
     20 C3          -5.7550    -0.5670    -0.4080 ca         1 EG8      -0.195600
     21 C4          -6.2580    -1.2510     0.6940 ca         1 EG8      -0.091000
     22 C5          -7.5780    -1.0640     1.0690 ca         1 EG8      -0.245300
     23 C6          -8.3600    -0.1920     0.3250 ca         1 EG8       0.398200
     24 H02          3.5130    -2.1420     0.4870 h5         1 EG8       0.072100
     25 H04          7.1240    -0.3060    -0.6590 h4         1 EG8       0.194000
     26 H05          7.4520    -3.0260    -0.5650 h4         1 EG8       0.041100
     27 H14          5.2100     3.4920    -0.5230 h4         1 EG8       0.033100
     28 H15          2.8270     3.7150     0.2030 ha         1 EG8       0.162000
     29 H17          1.1490     1.1760     1.9470 hc         1 EG8       0.067700
     30 H17A         0.8380     2.6110     0.9780 hc         1 EG8       0.067700
     31 H18          0.4050     1.1480    -1.0160 h1         1 EG8       0.042200
     32 H18A         0.7000    -0.2750    -0.0290 h1         1 EG8       0.042200
     33 HN19        -1.1430     0.5220     1.3710 hn         1 EG8       0.350800
     34 H20         -1.8330     0.3660    -1.4540 h1         1 EG8       0.030700
     35 H20A        -1.6550    -1.0340    -0.4100 h1         1 EG8       0.030700
     36 H21         -3.4930    -0.1070     1.0630 hc         1 EG8       0.050700
     37 H21A        -3.6930     1.2190    -0.0700 hc         1 EG8       0.050700
     38 H22         -4.2250    -0.4250    -1.8870 hc         1 EG8       0.048700
     39 H22A        -4.0130    -1.7460    -0.7540 hc         1 EG8       0.048700
     40 H4          -5.6200    -1.9280     1.2510 ha         1 EG8       0.135000
     41 H5          -7.9990    -1.5840     1.9180 ha         1 EG8       0.141000
     42 H6          -9.3980    -0.0240     0.5910 h4         1 EG8       0.019100
     43 H2          -6.2870     0.8270    -1.9500 h4         1 EG8       0.017100
@<TRIPOS>BOND
     1     1     2 2   
     2     1     5 1   
     3     2     3 1   
     4     2    24 1   
     5     3     4 1   
     6     3     8 1   
     7     4     5 2   
     8     4    25 1   
     9     5    26 1   
    10     6    16 ar  
    11     6    23 ar  
    12     7     8 ar  
    13     7    12 ar  
    14     8     9 ar  
    15     9    10 ar  
    16    10    11 ar  
    17    10    27 1   
    18    11    12 ar  
    19    11    28 1   
    20    12    13 1   
    21    13    14 1   
    22    13    29 1   
    23    13    30 1   
    24    14    15 1   
    25    14    31 1   
    26    14    32 1   
    27    15    17 1   
    28    15    33 1   
    29    16    20 ar  
    30    16    43 1   
    31    17    18 1   
    32    17    34 1   
    33    17    35 1   
    34    18    19 1   
    35    18    36 1   
    36    18    37 1   
    37    19    20 1   
    38    19    38 1   
    39    19    39 1   
    40    20    21 ar  
    41    21    22 ar  
    42    21    40 1   
    43    22    23 ar  
    44    22    41 1   
    45    23    42 1   
@<TRIPOS>SUBSTRUCTURE
     1 EG8         1 TEMP              0 ****  ****    0 ROOT
