@<TRIPOS>MOLECULE
EG8
   43    45     1     0     0
SMALL
No Charge or Current Charge


@<TRIPOS>ATOM
      1 N01          7.0120    -2.3630    -0.4450 nc         1 EG8      -0.669000
      2 C02          5.7790    -1.9000    -0.6430 cd         1 EG8       0.430400
      3 N03          5.4460    -1.0710     0.4100 na         1 EG8      -0.191000
      4 C04          6.5740    -0.8300     1.1710 cd         1 EG8      -0.191000
      5 C05          7.4940    -1.7100     0.6650 cc         1 EG8       0.228900
      6 N1          -8.1510     1.0090     0.0330 nb         1 EG8      -0.664000
      7 N11          3.3930     0.0760     0.5160 nb         1 EG8      -0.211000
      8 C12          4.6730     0.0350     0.0700 ca         1 EG8       0.242500
      9 N13          5.2130     1.0250    -0.6880 nb         1 EG8      -0.194000
     10 C14          4.4500     2.0880    -1.0080 ca         1 EG8       0.138900
     11 C15          3.1220     2.1880    -0.5780 ca         1 EG8      -0.234000
     12 C16          2.6230     1.1360     0.2010 ca         1 EG8       0.160300
     13 C17          1.1940     1.1370     0.7150 c3         1 EG8      -0.138700
     14 C18          0.2180     0.5370    -0.3100 c3         1 EG8       0.163800
     15 N19         -1.1540     0.5800     0.2240 n7         1 EG8      -0.862400
     16 C2          -6.9310     0.8470    -0.5330 ca         1 EG8       0.338900
     17 C20         -2.1920     0.0490    -0.6770 c3         1 EG8       0.158800
     18 C21         -3.5800     0.1640    -0.0170 c3         1 EG8      -0.077400
     19 C22         -4.7190    -0.3670    -0.9140 c3         1 EG8      -0.027100
     20 C3          -6.0820    -0.2430    -0.2450 ca         1 EG8      -0.130300
     21 C4          -6.5200    -1.2110     0.6760 ca         1 EG8      -0.073000
     22 C5          -7.7840    -1.0450     1.2650 ca         1 EG8      -0.162000
     23 C6          -8.5640     0.0710     0.9170 ca         1 EG8       0.332900
     24 H02          5.1100    -2.1130    -1.4700 h5         1 EG8       0.072100
     25 H04          6.6360    -0.1080     1.9770 h4         1 EG8       0.176000
     26 H05          8.5080    -1.8850     1.0020 h4         1 EG8       0.041100
     27 H14          4.9110     2.8640    -1.6170 h4         1 EG8       0.033100
     28 H15          2.5090     3.0450    -0.8400 ha         1 EG8       0.144000
     29 H17          1.1290     0.5730     1.6530 hc         1 EG8       0.067700
     30 H17A         0.8850     2.1630     0.9480 hc         1 EG8       0.067700
     31 H18          0.2840     1.1100    -1.2460 h1         1 EG8       0.042200
     32 H18A         0.5160    -0.4980    -0.5290 h1         1 EG8       0.042200
     33 HN19        -1.1760     0.0330     1.0930 hn         1 EG8       0.406000
     34 H20         -2.1980     0.6080    -1.6230 h1         1 EG8       0.030700
     35 H20A        -1.9920    -1.0060    -0.9110 h1         1 EG8       0.030700
     36 H21         -3.5800    -0.3920     0.9290 hc         1 EG8       0.050700
     37 H21A        -3.7780     1.2150     0.2270 hc         1 EG8       0.050700
     38 H22         -4.7120     0.1800    -1.8650 hc         1 EG8       0.048700
     39 H22A        -4.5200    -1.4170    -1.1640 hc         1 EG8       0.048700
     40 H4          -5.8980    -2.0670     0.9300 ha         1 EG8       0.117000
     41 H5          -8.1620    -1.7690     1.9820 ha         1 EG8       0.123000
     42 H6          -9.5480     0.2210     1.3610 h4         1 EG8       0.019100
     43 H2          -6.6250     1.6180    -1.2400 h4         1 EG8       0.017100
@<TRIPOS>BOND
     1     1     2 2   
     2     1     5 1   
     3     2     3 1   
     4     2    24 1   
     5     3     4 1   
     6     3     8 1   
     7     4     5 2   
     8     4    25 1   
     9     5    26 1   
    10     6    16 ar  
    11     6    23 ar  
    12     7     8 ar  
    13     7    12 ar  
    14     8     9 ar  
    15     9    10 ar  
    16    10    11 ar  
    17    10    27 1   
    18    11    12 ar  
    19    11    28 1   
    20    12    13 1   
    21    13    14 1   
    22    13    29 1   
    23    13    30 1   
    24    14    15 1   
    25    14    31 1   
    26    14    32 1   
    27    15    17 1   
    28    15    33 1   
    29    16    20 ar  
    30    16    43 1   
    31    17    18 1   
    32    17    34 1   
    33    17    35 1   
    34    18    19 1   
    35    18    36 1   
    36    18    37 1   
    37    19    20 1   
    38    19    38 1   
    39    19    39 1   
    40    20    21 ar  
    41    21    22 ar  
    42    21    40 1   
    43    22    23 ar  
    44    22    41 1   
    45    23    42 1   
@<TRIPOS>SUBSTRUCTURE
     1 EG8         1 TEMP              0 ****  ****    0 ROOT
