@<TRIPOS>MOLECULE
EGA
   30    30     1     0     0
SMALL
No Charge or Current Charge


@<TRIPOS>ATOM
      1 C2         128.9920    11.1480    -2.8650 c6         1 EGA       0.108300
      2 C3         129.4240     9.7280    -3.3400 c6         1 EGA       0.135300
      3 C4         128.2090     8.9390    -3.9220 c6         1 EGA       0.146300
      4 O5         127.1400    11.1190    -4.4770 os         1 EGA      -0.464000
      5 C7         127.2860    14.0360    -4.6380 c3         1 EGA       0.165600
      6 C8         126.9230    15.3780    -3.9820 c3         1 EGA      -0.093100
      7 C1         128.2780    11.8890    -4.0440 c6         1 EGA       0.377300
      8 C5         127.5070     9.8190    -5.0140 c6         1 EGA       0.182300
      9 C6         126.2300     9.1370    -5.6100 c3         1 EGA       0.171600
     10 O1         127.8430    13.1920    -3.6180 os         1 EGA      -0.452000
     11 O2         130.1310    11.8860    -2.3530 oh         1 EGA      -0.727000
     12 O3         130.0170     9.0060    -2.2440 oh         1 EGA      -0.667000
     13 O4         127.3240     8.5820    -2.8400 oh         1 EGA      -0.709000
     14 O6         125.6090     9.9050    -6.6640 oh         1 EGA      -0.722000
     15 H2         128.2440    11.0300    -2.0670 h1         1 EGA       0.075700
     16 H3         130.1650     9.8490    -4.1450 h1         1 EGA       0.048700
     17 H4         128.5900     8.0270    -4.4060 h1         1 EGA       0.049700
     18 H4A        126.3830    13.5870    -5.0720 h1         1 EGA       0.033700
     19 H5A        128.0130    14.2060    -5.4430 h1         1 EGA       0.033700
     20 H6         126.4920    16.0580    -4.7260 hc         1 EGA       0.043700
     21 H7         126.1860    15.2300    -3.1840 hc         1 EGA       0.043700
     22 H8         127.8140    15.8530    -3.5560 hc         1 EGA       0.043700
     23 H1         128.9840    12.0030    -4.8810 h2         1 EGA       0.029700
     24 H5         128.2120     9.9730    -5.8440 h1         1 EGA       0.049700
     25 H61        125.5140     8.9730    -4.7930 h1         1 EGA       0.040200
     26 H62        126.5200     8.1470    -5.9890 h1         1 EGA       0.040200
     27 HO2        129.8260    12.8190    -2.2420 ho         1 EGA       0.522000
     28 HO3        130.5950     9.6670    -1.7940 ho         1 EGA       0.468000
     29 HO4        127.9350     8.3680    -2.0920 ho         1 EGA       0.521000
     30 HO6        124.7740     9.4400    -6.9050 ho         1 EGA       0.507000
@<TRIPOS>BOND
     1     1     2 1   
     2     1     7 1   
     3     1    11 1   
     4     1    15 1   
     5     2     3 1   
     6     2    12 1   
     7     2    16 1   
     8     3     8 1   
     9     3    13 1   
    10     3    17 1   
    11     4     7 1   
    12     4     8 1   
    13     5     6 1   
    14     5    10 1   
    15     5    18 1   
    16     5    19 1   
    17     6    20 1   
    18     6    21 1   
    19     6    22 1   
    20     7    10 1   
    21     7    23 1   
    22     8     9 1   
    23     8    24 1   
    24     9    14 1   
    25     9    25 1   
    26     9    26 1   
    27    11    27 1   
    28    12    28 1   
    29    13    29 1   
    30    14    30 1   
@<TRIPOS>SUBSTRUCTURE
     1 EGA         1 TEMP              0 ****  ****    0 ROOT
