@<TRIPOS>MOLECULE
EGA
   30    30     1     0     0
SMALL
abcg2


@<TRIPOS>ATOM
      1 C2         128.9920    11.2040    -2.9490 c6         1 EGA       0.108300
      2 C3         129.4000     9.8070    -3.4030 c6         1 EGA       0.135300
      3 C4         128.1890     9.0220    -3.8970 c6         1 EGA       0.146300
      4 O5         127.1140    11.1190    -4.4430 os         1 EGA      -0.464000
      5 C7         127.3850    14.0280    -4.6390 c3         1 EGA       0.165600
      6 C8         126.8370    15.2710    -3.9780 c3         1 EGA      -0.093100
      7 C1         128.2290    11.8950    -4.0770 c6         1 EGA       0.377300
      8 C5         127.4670     9.8500    -4.9540 c6         1 EGA       0.182300
      9 C6         126.2140     9.1710    -5.4680 c3         1 EGA       0.171600
     10 O1         127.7860    13.1160    -3.6270 os         1 EGA      -0.452000
     11 O2         130.1700    11.9030    -2.6190 oh         1 EGA      -0.727000
     12 O3         130.0060     9.0750    -2.3670 oh         1 EGA      -0.667000
     13 O4         127.2910     8.7300    -2.8560 oh         1 EGA      -0.709000
     14 O6         125.8440     9.7780    -6.6840 oh         1 EGA      -0.722000
     15 H2         128.3210    11.1190    -2.0830 h1         1 EGA       0.075700
     16 H3         130.0870     9.9180    -4.2580 h1         1 EGA       0.048700
     17 H4         128.5470     8.1030    -4.3860 h1         1 EGA       0.049700
     18 H4A        126.6260    13.5820    -5.2900 h1         1 EGA       0.033700
     19 H5A        128.2460    14.2800    -5.2700 h1         1 EGA       0.033700
     20 H6         126.5380    15.9900    -4.7410 hc         1 EGA       0.043700
     21 H7         125.9610    15.0460    -3.3690 hc         1 EGA       0.043700
     22 H8         127.5850    15.7500    -3.3450 hc         1 EGA       0.043700
     23 H1         128.8990    12.0110    -4.9520 h2         1 EGA       0.029700
     24 H5         128.1660     9.9650    -5.7990 h1         1 EGA       0.049700
     25 H61        125.4200     9.2520    -4.7170 h1         1 EGA       0.040200
     26 H62        126.4260     8.1020    -5.5970 h1         1 EGA       0.040200
     27 HO2        129.9710    12.5420    -1.9290 ho         1 EGA       0.522000
     28 HO3        130.6840     9.6300    -1.9650 ho         1 EGA       0.468000
     29 HO4        127.7820     8.2940    -2.1520 ho         1 EGA       0.521000
     30 HO6        124.9780     9.4430    -6.9360 ho         1 EGA       0.507000
@<TRIPOS>BOND
     1     1     2 1   
     2     1     7 1   
     3     1    11 1   
     4     1    15 1   
     5     2     3 1   
     6     2    12 1   
     7     2    16 1   
     8     3     8 1   
     9     3    13 1   
    10     3    17 1   
    11     4     7 1   
    12     4     8 1   
    13     5     6 1   
    14     5    10 1   
    15     5    18 1   
    16     5    19 1   
    17     6    20 1   
    18     6    21 1   
    19     6    22 1   
    20     7    10 1   
    21     7    23 1   
    22     8     9 1   
    23     8    24 1   
    24     9    14 1   
    25     9    25 1   
    26     9    26 1   
    27    11    27 1   
    28    12    28 1   
    29    13    29 1   
    30    14    30 1   
@<TRIPOS>SUBSTRUCTURE
     1 EGA         1 TEMP              0 ****  ****    0 ROOT
