@<TRIPOS>MOLECULE
EGB
   39    41     1     0     0
SMALL
bcc


@<TRIPOS>ATOM
      1 OAD          5.2620    -0.9870    -0.5330 oh         1 EGB      -0.493100
      2 CAR          4.1280    -0.4880    -0.0020 ca         1 EGB       0.139100
      3 CAI          2.9580    -0.3430    -0.7440 ca         1 EGB      -0.195000
      4 CAG          4.1480    -0.1100     1.3370 ca         1 EGB      -0.153000
      5 CAF          2.9990     0.4070     1.9180 ca         1 EGB      -0.095000
      6 CAH          1.8310     0.5500     1.1840 ca         1 EGB      -0.146000
      7 CAS          1.8130     0.1740    -0.1550 ca         1 EGB      -0.077300
      8 CAT          0.5530     0.3450    -0.9830 c6         1 EGB       0.223200
      9 CAQ         -0.6010    -0.4310    -0.4170 ce         1 EGB      -0.312400
     10 CAN         -0.6010    -1.8760    -0.5620 c          1 EGB       0.601300
     11 OAC          0.2780    -2.4450    -1.1890 o          1 EGB      -0.534100
     12 CAJ         -1.7020    -2.6400     0.1310 c6         1 EGB      -0.174400
     13 CAU         -3.0220    -1.8760     0.2550 c6         1 EGB      -0.031000
     14 CAA         -3.9790    -2.6590     1.1490 c3         1 EGB      -0.089600
     15 CAB         -3.6650    -1.6880    -1.1210 c3         1 EGB      -0.089600
     16 CAK         -2.7310    -0.5170     0.8980 c6         1 EGB      -0.052200
     17 CAP         -1.6030     0.1980     0.2310 c2         1 EGB       0.110400
     18 NAL         -1.6140     1.5650     0.3160 ns         1 EGB      -0.428100
     19 CAO         -0.7680     2.3700    -0.3870 cs         1 EGB       0.594400
     20 SAE         -0.9790     4.0280    -0.3860 s          1 EGB      -0.622400
     21 NAM          0.1870     1.7540    -1.0720 ns         1 EGB      -0.489900
     22 HAD          5.1250    -1.2260    -1.4560 ho         1 EGB       0.428000
     23 HAI          2.9370    -0.6370    -1.7880 ha         1 EGB       0.137000
     24 HAG          5.0560    -0.2200     1.9170 ha         1 EGB       0.148000
     25 HAF          3.0200     0.6980     2.9610 ha         1 EGB       0.135000
     26 HAH          0.9460     0.9540     1.6600 ha         1 EGB       0.134000
     27 HAT          0.7600     0.0050    -2.0000 h1         1 EGB       0.083700
     28 HAM          0.8070     2.3530    -1.5970 hn         1 EGB       0.354500
     29 HAJ1        -1.8500    -3.5940    -0.3810 hc         1 EGB       0.074700
     30 HAJ2        -1.3290    -2.8830     1.1340 hc         1 EGB       0.074700
     31 HAA1        -3.5450    -2.8380     2.1340 hc         1 EGB       0.041700
     32 HAA2        -4.9180    -2.1200     1.2880 hc         1 EGB       0.041700
     33 HAA3        -4.2150    -3.6280     0.7050 hc         1 EGB       0.041700
     34 HAB1        -3.8790    -2.6560    -1.5780 hc         1 EGB       0.041700
     35 HAB2        -4.6110    -1.1500    -1.0360 hc         1 EGB       0.041700
     36 HAB3        -3.0300    -1.1320    -1.8130 hc         1 EGB       0.041700
     37 HAK1        -3.6270     0.1100     0.8850 hc         1 EGB       0.067200
     38 HAK2        -2.4630    -0.6540     1.9530 hc         1 EGB       0.067200
     39 HAL         -2.3780     2.0240     0.7890 hn         1 EGB       0.359500
@<TRIPOS>BOND
     1     1     2 1   
     2     1    22 1   
     3     2     3 ar  
     4     2     4 ar  
     5     3     7 ar  
     6     3    23 1   
     7     4     5 ar  
     8     4    24 1   
     9     5     6 ar  
    10     5    25 1   
    11     6     7 ar  
    12     6    26 1   
    13     7     8 1   
    14     8     9 1   
    15     8    21 1   
    16     8    27 1   
    17     9    10 1   
    18     9    17 2   
    19    10    11 2   
    20    10    12 1   
    21    12    13 1   
    22    12    29 1   
    23    12    30 1   
    24    13    14 1   
    25    13    15 1   
    26    13    16 1   
    27    14    31 1   
    28    14    32 1   
    29    14    33 1   
    30    15    34 1   
    31    15    35 1   
    32    15    36 1   
    33    16    17 1   
    34    16    37 1   
    35    16    38 1   
    36    17    18 1   
    37    18    19 1   
    38    18    39 1   
    39    19    20 2   
    40    19    21 1   
    41    21    28 1   
@<TRIPOS>SUBSTRUCTURE
     1 EGB         1 TEMP              0 ****  ****    0 ROOT
