@<TRIPOS>MOLECULE
EGB
   39    41     1     0     0
SMALL
No Charge or Current Charge


@<TRIPOS>ATOM
      1 OAD          5.2340    -1.0400    -0.6530 oh         1 EGB      -0.532100
      2 CAR          4.0940    -0.6090    -0.0420 ca         1 EGB       0.139100
      3 CAI          2.9700    -0.2590    -0.8100 ca         1 EGB      -0.177000
      4 CAG          4.0480    -0.5170     1.3570 ca         1 EGB      -0.135000
      5 CAF          2.8770    -0.0740     1.9940 ca         1 EGB      -0.077000
      6 CAH          1.7520     0.2760     1.2280 ca         1 EGB      -0.128000
      7 CAS          1.7910     0.1870    -0.1790 ca         1 EGB      -0.077300
      8 CAT          0.5610     0.5620    -1.0130 c6         1 EGB       0.223200
      9 CAQ         -0.6740    -0.2200    -0.5740 ce         1 EGB      -0.312400
     10 CAN         -0.6570    -1.6940    -0.7450 c          1 EGB       0.601300
     11 OAC          0.0420    -2.2700    -1.5680 o          1 EGB      -0.534100
     12 CAJ         -1.5030    -2.4500     0.2770 c6         1 EGB      -0.174400
     13 CAU         -2.9550    -1.8830     0.2900 c6         1 EGB      -0.031000
     14 CAA         -3.8020    -2.6270     1.3640 c3         1 EGB      -0.089600
     15 CAB         -3.6420    -2.1350    -1.0890 c3         1 EGB      -0.089600
     16 CAK         -2.9200    -0.3470     0.5990 c6         1 EGB      -0.052200
     17 CAP         -1.7280     0.3950    -0.0050 c2         1 EGB       0.110400
     18 NAL         -1.7260     1.7830     0.1330 ns         1 EGB      -0.361100
     19 CAO         -0.7480     2.6230    -0.3100 cs         1 EGB       0.460400
     20 SAE         -0.8510     4.2780    -0.1610 s          1 EGB      -0.622400
     21 NAM          0.3240     2.0060    -0.8870 ns         1 EGB      -0.422900
     22 HAD          5.0850    -1.0430    -1.6220 ho         1 EGB       0.467000
     23 HAI          3.0070    -0.3330    -1.8940 ha         1 EGB       0.119000
     24 HAG          4.9190    -0.7890     1.9480 ha         1 EGB       0.130000
     25 HAF          2.8410    -0.0020     3.0790 ha         1 EGB       0.117000
     26 HAH          0.8490     0.6190     1.7290 ha         1 EGB       0.116000
     27 HAT          0.7600     0.3480    -2.0740 h1         1 EGB       0.083700
     28 HAM          1.0590     2.6210    -1.2140 hn         1 EGB       0.354500
     29 HAJ1        -1.4560    -3.5310     0.0920 hc         1 EGB       0.074700
     30 HAJ2        -1.0740    -2.2290     1.2630 hc         1 EGB       0.074700
     31 HAA1        -3.3680    -2.5160     2.3650 hc         1 EGB       0.041700
     32 HAA2        -4.8270    -2.2400     1.4060 hc         1 EGB       0.041700
     33 HAA3        -3.8630    -3.7020     1.1530 hc         1 EGB       0.041700
     34 HAB1        -3.6340    -3.2000    -1.3510 hc         1 EGB       0.041700
     35 HAB2        -4.6890    -1.8080    -1.0800 hc         1 EGB       0.041700
     36 HAB3        -3.1430    -1.5920    -1.9010 hc         1 EGB       0.041700
     37 HAK1        -3.8580     0.1260     0.2770 hc         1 EGB       0.067200
     38 HAK2        -2.8750    -0.2010     1.6870 hc         1 EGB       0.067200
     39 HAL         -2.5260     2.2230     0.5720 hn         1 EGB       0.359500
@<TRIPOS>BOND
     1     1     2 1   
     2     1    22 1   
     3     2     3 ar  
     4     2     4 ar  
     5     3     7 ar  
     6     3    23 1   
     7     4     5 ar  
     8     4    24 1   
     9     5     6 ar  
    10     5    25 1   
    11     6     7 ar  
    12     6    26 1   
    13     7     8 1   
    14     8     9 1   
    15     8    21 1   
    16     8    27 1   
    17     9    10 1   
    18     9    17 2   
    19    10    11 2   
    20    10    12 1   
    21    12    13 1   
    22    12    29 1   
    23    12    30 1   
    24    13    14 1   
    25    13    15 1   
    26    13    16 1   
    27    14    31 1   
    28    14    32 1   
    29    14    33 1   
    30    15    34 1   
    31    15    35 1   
    32    15    36 1   
    33    16    17 1   
    34    16    37 1   
    35    16    38 1   
    36    17    18 1   
    37    18    19 1   
    38    18    39 1   
    39    19    20 2   
    40    19    21 1   
    41    21    28 1   
@<TRIPOS>SUBSTRUCTURE
     1 EGB         1 TEMP              0 ****  ****    0 ROOT
