@<TRIPOS>MOLECULE
EGC
  100   100     1     0     0
SMALL
No Charge or Current Charge


@<TRIPOS>ATOM
      1 O1          -3.9060     1.1880     3.0680 oh         1 EGC      -0.736000
      2 C2          -2.5070     1.4600     3.2270 c3         1 EGC       0.172600
      3 C3          -1.7440     0.1220     3.3850 c3         1 EGC       0.119600
      4 O4          -2.3790    -0.8610     2.5390 os         1 EGC      -0.438000
      5 C5          -1.7460    -2.1550     2.5520 c3         1 EGC       0.156600
      6 C6          -2.5250    -3.1090     1.6160 c3         1 EGC       0.163600
      7 O7          -2.2930    -2.7230     0.2460 os         1 EGC      -0.453000
      8 C8          -2.9590    -3.5550    -0.7250 c3         1 EGC       0.165600
      9 C9          -2.6890    -3.0010    -2.1440 c3         1 EGC       0.152600
     10 O10         -3.4820    -1.8140    -2.3370 os         1 EGC      -0.424000
     11 C11         -3.4560    -1.2840    -3.6760 c3         1 EGC       0.161600
     12 C12         -4.4960    -0.1450    -3.7870 c3         1 EGC       0.164600
     13 C14         -6.9040     0.2060    -3.7660 c3         1 EGC       0.157600
     14 C15         -8.2100    -0.5370    -3.3960 c3         1 EGC       0.162600
     15 C17         -9.3540    -1.4970    -1.4810 c3         1 EGC       0.158600
     16 C18         -9.3810    -1.4430     0.0670 c3         1 EGC       0.158600
     17 C20         -8.1400    -2.1190     2.0330 c3         1 EGC       0.162600
     18 C21         -6.8710    -2.8840     2.4810 c3         1 EGC       0.153600
     19 C23         -6.0160    -5.1290     2.8030 c3         1 EGC       0.131600
     20 C24         -6.3300    -6.6120     2.4630 c3         1 EGC       0.162600
     21 C26         -4.8480    -6.9130     0.5330 c3         1 EGC       0.157600
     22 C27         -4.9010    -7.0590    -1.0040 c3         1 EGC       0.159600
     23 C29         -5.4030    -5.5860    -2.9230 ca         1 EGC       0.132100
     24 C30         -5.7580    -4.3060    -3.3640 ca         1 EGC      -0.167000
     25 C31         -5.8390    -4.0230    -4.7360 ca         1 EGC      -0.080000
     26 C32         -5.5690    -5.0150    -5.7090 ca         1 EGC      -0.104300
     27 C33         -5.2380    -6.3140    -5.2470 ca         1 EGC      -0.080000
     28 C34         -5.1480    -6.5950    -3.8710 ca         1 EGC      -0.167000
     29 C35         -5.6590    -4.6530    -7.2210 c3         1 EGC       0.018300
     30 C36         -7.1220    -4.1930    -7.4930 c3         1 EGC      -0.085100
     31 C37         -5.4120    -5.8710    -8.1550 c3         1 EGC      -0.085100
     32 C38         -4.7090    -3.4420    -7.5800 c3         1 EGC      -0.055400
     33 C39         -3.1360    -3.5820    -7.5990 c3         1 EGC      -0.036000
     34 C40         -2.5430    -2.1440    -7.5700 c3         1 EGC      -0.084433
     35 C41         -2.6230    -4.2520    -8.9070 c3         1 EGC      -0.084433
     36 C42         -2.5800    -4.3540    -6.3740 c3         1 EGC      -0.084433
     37 O13         -5.8080    -0.7160    -3.6280 os         1 EGC      -0.443000
     38 O16         -8.2730    -0.6730    -1.9620 os         1 EGC      -0.448000
     39 O19         -8.2370    -2.1460     0.5950 os         1 EGC      -0.432000
     40 O22         -7.0790    -4.2980     2.3000 os         1 EGC      -0.430000
     41 O25         -6.1990    -6.8480     1.0420 os         1 EGC      -0.432000
     42 O28         -5.3150    -5.7980    -1.5640 os         1 EGC      -0.336100
     43 H1          -3.9060     0.2780     2.6760 ho         1 EGC       0.541000
     44 H21         -2.1200     1.9820     2.3410 h1         1 EGC       0.040200
     45 H22         -2.3220     2.0990     4.1010 h1         1 EGC       0.040200
     46 H31A        -1.7820    -0.1960     4.4350 h1         1 EGC       0.022200
     47 H32         -0.6910     0.2650     3.1070 h1         1 EGC       0.022200
     48 H51         -0.7010    -2.0860     2.2210 h1         1 EGC       0.022200
     49 H52         -1.7550    -2.5710     3.5680 h1         1 EGC       0.022200
     50 H61         -3.5940    -3.0670     1.8610 h1         1 EGC       0.038200
     51 H62         -2.1750    -4.1360     1.7870 h1         1 EGC       0.038200
     52 H81         -2.5790    -4.5840    -0.6690 h1         1 EGC       0.040200
     53 H82         -4.0420    -3.5820    -0.5460 h1         1 EGC       0.040200
     54 H91         -2.9710    -3.7690    -2.8770 h1         1 EGC       0.024200
     55 H92         -1.6200    -2.7870    -2.2680 h1         1 EGC       0.024200
     56 H111        -2.4580    -0.8930    -3.9150 h1         1 EGC       0.024700
     57 H112        -3.7050    -2.0610    -4.4080 h1         1 EGC       0.024700
     58 H121        -4.4010     0.3290    -4.7730 h1         1 EGC       0.026700
     59 H122        -4.3000     0.6130    -3.0180 h1         1 EGC       0.026700
     60 H141        -6.7770     1.0770    -3.1090 h1         1 EGC       0.029700
     61 H142        -6.9720     0.5630    -4.8020 h1         1 EGC       0.029700
     62 H151        -8.2230    -1.5190    -3.8890 h1         1 EGC       0.028200
     63 H152        -9.0690     0.0400    -3.7610 h1         1 EGC       0.028200
     64 H171       -10.3150    -1.1260    -1.8600 h1         1 EGC       0.034700
     65 H172        -9.2350    -2.5370    -1.8130 h1         1 EGC       0.034700
     66 H181       -10.3090    -1.9100     0.4210 h1         1 EGC       0.028700
     67 H182        -9.3820    -0.3950     0.3930 h1         1 EGC       0.028700
     68 H201        -8.0680    -1.0830     2.3870 h1         1 EGC       0.032200
     69 H202        -9.0250    -2.5750     2.4970 h1         1 EGC       0.032200
     70 H211        -6.6860    -2.6610     3.5400 h1         1 EGC       0.033200
     71 H212        -6.0050    -2.5350     1.9030 h1         1 EGC       0.033200
     72 H231        -5.0490    -4.8330     2.3790 h1         1 EGC       0.017200
     73 H232        -5.9460    -5.0260     3.8940 h1         1 EGC       0.017200
     74 H241        -7.3520    -6.8380     2.7930 h1         1 EGC       0.049200
     75 H242        -5.6500    -7.2650     3.0270 h1         1 EGC       0.049200
     76 H261        -4.2730    -6.0140     0.7850 h1         1 EGC       0.029700
     77 H262        -4.3260    -7.7810     0.9560 h1         1 EGC       0.029700
     78 H271        -5.5970    -7.8620    -1.2770 h1         1 EGC       0.040700
     79 H272        -3.9000    -7.3260    -1.3670 h1         1 EGC       0.040700
     80 H30         -5.9610    -3.5220    -2.6390 ha         1 EGC       0.130500
     81 H31         -6.1140    -3.0150    -5.0340 ha         1 EGC       0.117000
     82 H33         -5.0350    -7.1280    -5.9370 ha         1 EGC       0.117000
     83 H34         -4.8810    -7.6010    -3.5630 ha         1 EGC       0.130500
     84 H361        -7.3680    -3.2720    -6.9510 hc         1 EGC       0.032867
     85 H362        -7.8370    -4.9650    -7.1840 hc         1 EGC       0.032867
     86 H363        -7.2810    -3.9960    -8.5610 hc         1 EGC       0.032867
     87 H371        -6.1950    -6.6280    -8.0270 hc         1 EGC       0.032867
     88 H372        -5.4180    -5.5640    -9.2080 hc         1 EGC       0.032867
     89 H373        -4.4540    -6.3570    -7.9490 hc         1 EGC       0.032867
     90 H381        -5.0070    -3.0700    -8.5690 hc         1 EGC       0.035200
     91 H382        -4.9600    -2.6180    -6.9030 hc         1 EGC       0.035200
     92 H401        -2.8340    -1.6130    -6.6560 hc         1 EGC       0.031700
     93 H402        -2.8960    -1.5560    -8.4270 hc         1 EGC       0.031700
     94 H403        -1.4470    -2.1640    -7.6050 hc         1 EGC       0.031700
     95 H411        -3.0630    -3.7780    -9.7930 hc         1 EGC       0.031700
     96 H412        -1.5330    -4.1570    -8.9890 hc         1 EGC       0.031700
     97 H413        -2.8440    -5.3220    -8.9480 hc         1 EGC       0.031700
     98 H421        -1.4840    -4.3130    -6.3520 hc         1 EGC       0.031700
     99 H422        -2.9470    -3.9280    -5.4350 hc         1 EGC       0.031700
    100 H423        -2.8630    -5.4110    -6.4070 hc         1 EGC       0.031700
@<TRIPOS>BOND
     1     1     2 1   
     2     1    43 1   
     3     2     3 1   
     4     2    44 1   
     5     2    45 1   
     6     3     4 1   
     7     3    46 1   
     8     3    47 1   
     9     4     5 1   
    10     5     6 1   
    11     5    48 1   
    12     5    49 1   
    13     6     7 1   
    14     6    50 1   
    15     6    51 1   
    16     7     8 1   
    17     8     9 1   
    18     8    52 1   
    19     8    53 1   
    20     9    10 1   
    21     9    54 1   
    22     9    55 1   
    23    10    11 1   
    24    11    12 1   
    25    11    56 1   
    26    11    57 1   
    27    12    37 1   
    28    12    58 1   
    29    12    59 1   
    30    13    14 1   
    31    13    37 1   
    32    13    60 1   
    33    13    61 1   
    34    14    38 1   
    35    14    62 1   
    36    14    63 1   
    37    15    16 1   
    38    15    38 1   
    39    15    64 1   
    40    15    65 1   
    41    16    39 1   
    42    16    66 1   
    43    16    67 1   
    44    17    18 1   
    45    17    39 1   
    46    17    68 1   
    47    17    69 1   
    48    18    40 1   
    49    18    70 1   
    50    18    71 1   
    51    19    20 1   
    52    19    40 1   
    53    19    72 1   
    54    19    73 1   
    55    20    41 1   
    56    20    74 1   
    57    20    75 1   
    58    21    22 1   
    59    21    41 1   
    60    21    76 1   
    61    21    77 1   
    62    22    42 1   
    63    22    78 1   
    64    22    79 1   
    65    23    24 ar  
    66    23    28 ar  
    67    23    42 1   
    68    24    25 ar  
    69    24    80 1   
    70    25    26 ar  
    71    25    81 1   
    72    26    27 ar  
    73    26    29 1   
    74    27    28 ar  
    75    27    82 1   
    76    28    83 1   
    77    29    30 1   
    78    29    31 1   
    79    29    32 1   
    80    30    84 1   
    81    30    85 1   
    82    30    86 1   
    83    31    87 1   
    84    31    88 1   
    85    31    89 1   
    86    32    33 1   
    87    32    90 1   
    88    32    91 1   
    89    33    34 1   
    90    33    35 1   
    91    33    36 1   
    92    34    92 1   
    93    34    93 1   
    94    34    94 1   
    95    35    95 1   
    96    35    96 1   
    97    35    97 1   
    98    36    98 1   
    99    36    99 1   
   100    36   100 1   
@<TRIPOS>SUBSTRUCTURE
     1 EGC         1 TEMP              0 ****  ****    0 ROOT
