@<TRIPOS>MOLECULE
EGC
  100   100     1     0     0
SMALL
bcc


@<TRIPOS>ATOM
      1 O1          -6.1230     0.2710     0.7190 oh         1 EGC      -0.613800
      2 C2          -4.8430     0.7530     1.0460 c3         1 EGC       0.149400
      3 C3          -4.0260    -0.1780     1.9140 c3         1 EGC       0.096400
      4 O4          -3.6770    -1.3180     1.1730 os         1 EGC      -0.391600
      5 C5          -2.8750    -2.2220     1.8830 c3         1 EGC       0.133400
      6 C6          -2.5150    -3.3720     0.9750 c3         1 EGC       0.140400
      7 O7          -1.6510    -2.9130    -0.0320 os         1 EGC      -0.406600
      8 C8          -1.7550    -3.5440    -1.2830 c3         1 EGC       0.142400
      9 C9          -1.5750    -2.5270    -2.3830 c3         1 EGC       0.129400
     10 O10         -2.6090    -1.5850    -2.3130 os         1 EGC      -0.377600
     11 C11         -2.5960    -0.6730    -3.3740 c3         1 EGC       0.138400
     12 C12         -3.6980     0.3400    -3.1930 c3         1 EGC       0.141400
     13 C14         -6.0290     0.5810    -3.1210 c3         1 EGC       0.134400
     14 C15         -7.3080    -0.2140    -3.0600 c3         1 EGC       0.139400
     15 C17         -8.4030    -1.8580    -1.7820 c3         1 EGC       0.135400
     16 C18         -8.7490    -2.1390    -0.3410 c3         1 EGC       0.135400
     17 C20         -7.7390    -2.6110     1.7150 c3         1 EGC       0.139400
     18 C21         -6.5340    -3.2530     2.3500 c3         1 EGC       0.130400
     19 C23         -5.5100    -5.3050     2.8020 c3         1 EGC       0.108400
     20 C24         -5.6590    -6.7970     2.6040 c3         1 EGC       0.139400
     21 C26         -4.4660    -7.2800     0.6130 c3         1 EGC       0.134400
     22 C27         -4.6560    -7.1370    -0.8750 c3         1 EGC       0.136400
     23 C29         -5.2230    -5.4290    -2.4310 ca         1 EGC       0.132100
     24 C30         -5.2810    -4.0610    -2.7030 ca         1 EGC      -0.185000
     25 C31         -5.5550    -3.6210    -3.9830 ca         1 EGC      -0.098000
     26 C32         -5.8060    -4.5040    -5.0380 ca         1 EGC      -0.104300
     27 C33         -5.7530    -5.8590    -4.7430 ca         1 EGC      -0.098000
     28 C34         -5.4540    -6.3280    -3.4660 ca         1 EGC      -0.185000
     29 C35         -6.0910    -3.9700    -6.4350 c3         1 EGC       0.018300
     30 C36         -7.1880    -2.8930    -6.3500 c3         1 EGC      -0.085100
     31 C37         -6.6470    -5.0530    -7.3660 c3         1 EGC      -0.085100
     32 C38         -4.8530    -3.2670    -7.0450 c3         1 EGC      -0.055400
     33 C39         -3.4720    -3.9370    -7.2210 c3         1 EGC      -0.036000
     34 C40         -2.6150    -2.9120    -7.9770 c3         1 EGC      -0.084433
     35 C41         -3.5120    -5.2200    -8.0520 c3         1 EGC      -0.084433
     36 C42         -2.7830    -4.2290    -5.8860 c3         1 EGC      -0.084433
     37 O13         -4.9440    -0.2940    -3.2620 os         1 EGC      -0.396600
     38 O16         -7.3810    -0.8950    -1.8350 os         1 EGC      -0.401600
     39 O19         -7.6540    -2.7190     0.3170 os         1 EGC      -0.385600
     40 O22         -6.6210    -4.6520     2.2520 os         1 EGC      -0.383600
     41 O25         -5.7160    -7.1630     1.2460 os         1 EGC      -0.385600
     42 O28         -4.9440    -5.7830    -1.1570 os         1 EGC      -0.312900
     43 H1          -6.0540    -0.4450     0.0780 ho         1 EGC       0.442000
     44 H21         -4.2630     1.0070     0.1480 h1         1 EGC       0.040200
     45 H22         -4.9850     1.6830     1.6010 h1         1 EGC       0.040200
     46 H31A        -4.5960    -0.4490     2.8150 h1         1 EGC       0.022200
     47 H32         -3.1280     0.3600     2.2550 h1         1 EGC       0.022200
     48 H51         -1.9610    -1.7350     2.2550 h1         1 EGC       0.022200
     49 H52         -3.3990    -2.6160     2.7660 h1         1 EGC       0.022200
     50 H61         -3.4340    -3.7950     0.5460 h1         1 EGC       0.038200
     51 H62         -2.0460    -4.1640     1.5770 h1         1 EGC       0.038200
     52 H81         -0.9950    -4.3290    -1.3990 h1         1 EGC       0.040200
     53 H82         -2.7320    -4.0250    -1.4010 h1         1 EGC       0.040200
     54 H91         -1.5800    -3.0640    -3.3430 h1         1 EGC       0.024200
     55 H92         -0.5900    -2.0420    -2.3020 h1         1 EGC       0.024200
     56 H111        -1.6420    -0.1270    -3.4240 h1         1 EGC       0.024700
     57 H112        -2.7150    -1.1860    -4.3410 h1         1 EGC       0.024700
     58 H121        -3.5910     1.1020    -3.9800 h1         1 EGC       0.026700
     59 H122        -3.5750     0.8590    -2.2310 h1         1 EGC       0.026700
     60 H141        -5.9330     1.1940    -2.2130 h1         1 EGC       0.029700
     61 H142        -6.0910     1.2780    -3.9700 h1         1 EGC       0.029700
     62 H151        -7.3470    -0.9100    -3.9090 h1         1 EGC       0.028200
     63 H152        -8.1570     0.4740    -3.1760 h1         1 EGC       0.028200
     64 H171        -9.3180    -1.4990    -2.2730 h1         1 EGC       0.034700
     65 H172        -8.0950    -2.7780    -2.2990 h1         1 EGC       0.034700
     66 H181        -9.6270    -2.8010    -0.3130 h1         1 EGC       0.028700
     67 H182        -9.0460    -1.1980     0.1430 h1         1 EGC       0.028700
     68 H201        -7.7600    -1.5560     2.0180 h1         1 EGC       0.032200
     69 H202        -8.6580    -3.0740     2.1020 h1         1 EGC       0.032200
     70 H211        -6.4880    -2.9370     3.4020 h1         1 EGC       0.033200
     71 H212        -5.6280    -2.8770     1.8570 h1         1 EGC       0.033200
     72 H231        -4.5770    -4.9490     2.3410 h1         1 EGC       0.017200
     73 H232        -5.4170    -5.1060     3.8810 h1         1 EGC       0.017200
     74 H241        -6.5910    -7.1340     3.0640 h1         1 EGC       0.049200
     75 H242        -4.8400    -7.3050     3.1290 h1         1 EGC       0.049200
     76 H261        -3.7510    -6.5250     0.9620 h1         1 EGC       0.029700
     77 H262        -4.0160    -8.2610     0.8150 h1         1 EGC       0.029700
     78 H271        -5.4670    -7.7980    -1.2010 h1         1 EGC       0.040700
     79 H272        -3.7430    -7.4550    -1.3920 h1         1 EGC       0.040700
     80 H30         -5.1110    -3.3380    -1.9140 ha         1 EGC       0.148500
     81 H31         -5.5500    -2.5520    -4.1430 ha         1 EGC       0.135000
     82 H33         -5.9270    -6.5970    -5.5140 ha         1 EGC       0.135000
     83 H34         -5.4110    -7.3980    -3.3080 ha         1 EGC       0.148500
     84 H361        -6.8570    -2.0090    -5.8050 hc         1 EGC       0.032867
     85 H362        -8.0820    -3.2750    -5.8550 hc         1 EGC       0.032867
     86 H363        -7.4720    -2.5620    -7.3510 hc         1 EGC       0.032867
     87 H371        -7.6020    -5.4300    -6.9930 hc         1 EGC       0.032867
     88 H372        -6.8250    -4.6340    -8.3580 hc         1 EGC       0.032867
     89 H373        -5.9870    -5.9070    -7.4940 hc         1 EGC       0.032867
     90 H381        -5.1660    -2.9080    -8.0330 hc         1 EGC       0.035200
     91 H382        -4.6740    -2.3590    -6.4560 hc         1 EGC       0.035200
     92 H401        -2.5200    -1.9800    -7.4160 hc         1 EGC       0.031700
     93 H402        -3.0540    -2.6690    -8.9480 hc         1 EGC       0.031700
     94 H403        -1.6080    -3.2980    -8.1540 hc         1 EGC       0.031700
     95 H411        -4.0600    -5.0810    -8.9870 hc         1 EGC       0.031700
     96 H412        -2.4970    -5.5310    -8.3110 hc         1 EGC       0.031700
     97 H413        -3.9700    -6.0470    -7.5100 hc         1 EGC       0.031700
     98 H421        -1.7370    -4.5030    -6.0520 hc         1 EGC       0.031700
     99 H422        -2.7980    -3.3540    -5.2330 hc         1 EGC       0.031700
    100 H423        -3.2560    -5.0430    -5.3390 hc         1 EGC       0.031700
@<TRIPOS>BOND
     1     1     2 1   
     2     1    43 1   
     3     2     3 1   
     4     2    44 1   
     5     2    45 1   
     6     3     4 1   
     7     3    46 1   
     8     3    47 1   
     9     4     5 1   
    10     5     6 1   
    11     5    48 1   
    12     5    49 1   
    13     6     7 1   
    14     6    50 1   
    15     6    51 1   
    16     7     8 1   
    17     8     9 1   
    18     8    52 1   
    19     8    53 1   
    20     9    10 1   
    21     9    54 1   
    22     9    55 1   
    23    10    11 1   
    24    11    12 1   
    25    11    56 1   
    26    11    57 1   
    27    12    37 1   
    28    12    58 1   
    29    12    59 1   
    30    13    14 1   
    31    13    37 1   
    32    13    60 1   
    33    13    61 1   
    34    14    38 1   
    35    14    62 1   
    36    14    63 1   
    37    15    16 1   
    38    15    38 1   
    39    15    64 1   
    40    15    65 1   
    41    16    39 1   
    42    16    66 1   
    43    16    67 1   
    44    17    18 1   
    45    17    39 1   
    46    17    68 1   
    47    17    69 1   
    48    18    40 1   
    49    18    70 1   
    50    18    71 1   
    51    19    20 1   
    52    19    40 1   
    53    19    72 1   
    54    19    73 1   
    55    20    41 1   
    56    20    74 1   
    57    20    75 1   
    58    21    22 1   
    59    21    41 1   
    60    21    76 1   
    61    21    77 1   
    62    22    42 1   
    63    22    78 1   
    64    22    79 1   
    65    23    24 ar  
    66    23    28 ar  
    67    23    42 1   
    68    24    25 ar  
    69    24    80 1   
    70    25    26 ar  
    71    25    81 1   
    72    26    27 ar  
    73    26    29 1   
    74    27    28 ar  
    75    27    82 1   
    76    28    83 1   
    77    29    30 1   
    78    29    31 1   
    79    29    32 1   
    80    30    84 1   
    81    30    85 1   
    82    30    86 1   
    83    31    87 1   
    84    31    88 1   
    85    31    89 1   
    86    32    33 1   
    87    32    90 1   
    88    32    91 1   
    89    33    34 1   
    90    33    35 1   
    91    33    36 1   
    92    34    92 1   
    93    34    93 1   
    94    34    94 1   
    95    35    95 1   
    96    35    96 1   
    97    35    97 1   
    98    36    98 1   
    99    36    99 1   
   100    36   100 1   
@<TRIPOS>SUBSTRUCTURE
     1 EGC         1 TEMP              0 ****  ****    0 ROOT
