@<TRIPOS>MOLECULE
EGE
   43    45     1     0     0
SMALL
abcg2


@<TRIPOS>ATOM
      1 C02         -6.1590    -1.6180    -0.9700 c          1 EGE       0.728600
      2 C04         -5.4190    -0.5750    -0.1850 ca         1 EGE      -0.328600
      3 C05         -4.0690    -0.3860    -0.3310 ca         1 EGE       0.048000
      4 C06         -6.1240     0.2570     0.7400 ca         1 EGE       0.312100
      5 C08         -5.4500     1.2230     1.4730 ca         1 EGE      -0.345000
      6 C09         -4.0720     1.4080     1.3240 ca         1 EGE       0.434000
      7 C10         -3.3670     0.5880     0.3930 ca         1 EGE      -0.103600
      8 C13         -0.0100     0.4550    -0.6040 ca         1 EGE       0.200400
      9 C14          0.7500    -0.3460    -1.4560 ca         1 EGE      -0.141000
     10 C15          2.1060    -0.1240    -1.6200 ca         1 EGE      -0.006500
     11 C16          0.6120     1.5020     0.0880 ca         1 EGE      -0.141000
     12 C17          1.9620     1.7350    -0.0760 ca         1 EGE      -0.006500
     13 C18          2.7030     0.9180    -0.9280 ca         1 EGE      -0.319500
     14 C23          5.0850    -0.6100     0.7390 ca         1 EGE       0.622900
     15 C25          4.4740    -2.7680     0.3810 ca         1 EGE       0.390900
     16 C26          4.9570    -3.1770     1.6100 ca         1 EGE      -0.202000
     17 C27          5.5320    -2.2130     2.4330 ca         1 EGE      -0.045000
     18 C28          5.6020    -0.9040     2.0030 ca         1 EGE      -0.206000
     19 N11         -2.0260     0.8390     0.2720 ne         1 EGE      -0.176400
     20 N12         -1.3690     0.1310    -0.5220 nf         1 EGE      -0.296400
     21 N22          5.1450     0.6970     0.2700 nu         1 EGE      -0.892000
     22 N24          4.5360    -1.5120    -0.0510 nb         1 EGE      -0.721000
     23 N91         -3.4150     2.3220     2.0640 nv         1 EGE      -1.105000
     24 O01         -5.5500    -2.3350    -1.7660 o          1 EGE      -0.681000
     25 O03         -7.4140    -1.6790    -0.7440 o          1 EGE      -0.681000
     26 O07         -7.4230     0.0980     0.8890 oh         1 EGE      -0.625100
     27 O20          4.9260     0.5080    -2.2600 o          1 EGE      -0.544000
     28 O21          4.6310     2.6860    -1.0610 o          1 EGE      -0.544000
     29 S19          4.4240     1.2480    -1.1200 sy         1 EGE       1.196600
     30 H1          -3.5220    -1.0020    -1.0330 ha         1 EGE       0.147000
     31 H2          -6.0030     1.8380     2.1730 ha         1 EGE       0.111000
     32 H3           0.2630    -1.1530    -1.9890 ha         1 EGE       0.129500
     33 H4           2.6840    -0.7590    -2.2750 ha         1 EGE       0.124500
     34 H5           0.0370     2.1360     0.7470 ha         1 EGE       0.129500
     35 H6           2.4290     2.5510     0.4580 ha         1 EGE       0.124500
     36 H7           4.0130    -3.4800    -0.2940 h4         1 EGE       0.026100
     37 H8           4.8850    -4.2110     1.9140 ha         1 EGE       0.126000
     38 H9           5.9230    -2.4820     3.4060 ha         1 EGE       0.114000
     39 H10          6.0400    -0.1300     2.6200 ha         1 EGE       0.123000
     40 H11          5.4190     1.4250     0.9170 hn         1 EGE       0.511000
     41 H12         -3.9330     3.0260     2.5600 hn         1 EGE       0.475500
     42 H13         -2.4620     2.5420     1.8310 hn         1 EGE       0.475500
     43 H15         -7.6510    -0.6790     0.2220 ho         1 EGE       0.561000
@<TRIPOS>BOND
     1     1     2 1   
     2     1    24 1   
     3     1    25 1   
     4     2     3 ar  
     5     2     4 ar  
     6     3     7 ar  
     7     3    30 1   
     8     4     5 ar  
     9     4    26 1   
    10     5     6 ar  
    11     5    31 1   
    12     6     7 ar  
    13     6    23 1   
    14     7    19 1   
    15     8     9 ar  
    16     8    11 ar  
    17     8    20 1   
    18     9    10 ar  
    19     9    32 1   
    20    10    13 ar  
    21    10    33 1   
    22    11    12 ar  
    23    11    34 1   
    24    12    13 ar  
    25    12    35 1   
    26    13    29 1   
    27    14    18 ar  
    28    14    21 1   
    29    14    22 ar  
    30    15    16 ar  
    31    15    22 ar  
    32    15    36 1   
    33    16    17 ar  
    34    16    37 1   
    35    17    18 ar  
    36    17    38 1   
    37    18    39 1   
    38    19    20 2   
    39    21    29 1   
    40    21    40 1   
    41    23    41 1   
    42    23    42 1   
    43    26    43 1   
    44    27    29 2   
    45    28    29 2   
@<TRIPOS>SUBSTRUCTURE
     1 EGE         1 TEMP              0 ****  ****    0 ROOT
