@<TRIPOS>MOLECULE
EGE
   43    45     1     0     0
SMALL
No Charge or Current Charge


@<TRIPOS>ATOM
      1 C02         -6.0100    -1.7370    -0.9440 c          1 EGE       0.728600
      2 C04         -5.2260    -0.7900    -0.0740 ca         1 EGE      -0.328600
      3 C05         -3.8230    -0.6980    -0.2220 ca         1 EGE       0.048000
      4 C06         -5.8520     0.0180     0.8930 ca         1 EGE       0.312100
      5 C08         -5.1120     0.8880     1.6930 ca         1 EGE      -0.345000
      6 C09         -3.7300     0.9710     1.5420 ca         1 EGE       0.434000
      7 C10         -3.0670     0.1810     0.5770 ca         1 EGE      -0.103600
      8 C13          0.1410     0.9970    -0.7570 ca         1 EGE       0.200400
      9 C14          0.7980     0.0130    -1.5150 ca         1 EGE      -0.141000
     10 C15          2.1890     0.0730    -1.7030 ca         1 EGE      -0.006500
     11 C16          0.8810     2.0500    -0.1910 ca         1 EGE      -0.141000
     12 C17          2.2730     2.1180    -0.3730 ca         1 EGE      -0.006500
     13 C18          2.9310     1.1280    -1.1330 ca         1 EGE      -0.319500
     14 C23          4.8770    -0.6600     0.5980 ca         1 EGE       0.622900
     15 C25          4.2610    -2.8660     0.3620 ca         1 EGE       0.390900
     16 C26          3.9850    -2.9850     1.7340 ca         1 EGE      -0.202000
     17 C27          4.1820    -1.8760     2.5700 ca         1 EGE      -0.045000
     18 C28          4.6450    -0.6900     1.9810 ca         1 EGE      -0.206000
     19 N11         -1.6650     0.2410     0.4040 ne         1 EGE      -0.176400
     20 N12         -1.2630     0.9360    -0.5750 nf         1 EGE      -0.296400
     21 N22          5.3470     0.4710     0.0040 nu         1 EGE      -0.892000
     22 N24          4.7070    -1.7210    -0.2010 nb         1 EGE      -0.721000
     23 N91         -3.0490     1.8350     2.3520 nv         1 EGE      -1.105000
     24 O01         -5.4070    -2.4140    -1.7600 o          1 EGE      -0.681000
     25 O03         -7.2230    -1.7840    -0.7900 o          1 EGE      -0.681000
     26 O07         -7.1920    -0.0340     1.0720 oh         1 EGE      -0.625100
     27 O20          5.1420     0.3550    -2.4750 o          1 EGE      -0.544000
     28 O21          5.1730     2.5790    -1.1970 o          1 EGE      -0.544000
     29 S19          4.7160     1.1970    -1.3530 sy         1 EGE       1.196600
     30 H1          -3.3050    -1.3070    -0.9610 ha         1 EGE       0.147000
     31 H2          -5.6190     1.4960     2.4350 ha         1 EGE       0.111000
     32 H3           0.2280    -0.8010    -1.9550 ha         1 EGE       0.129500
     33 H4           2.6850    -0.7020    -2.2850 ha         1 EGE       0.124500
     34 H5           0.3750     2.8140     0.3920 ha         1 EGE       0.129500
     35 H6           2.8310     2.9370     0.0760 ha         1 EGE       0.124500
     36 H7           4.1220    -3.7140    -0.3070 h4         1 EGE       0.026100
     37 H8           3.6280    -3.9290     2.1370 ha         1 EGE       0.126000
     38 H9           3.9840    -1.9340     3.6390 ha         1 EGE       0.114000
     39 H10          4.8140     0.1920     2.5890 ha         1 EGE       0.123000
     40 H11          5.4810     1.2400     0.6370 hn         1 EGE       0.511000
     41 H12         -3.5730     2.5640     2.8280 hn         1 EGE       0.475500
     42 H13         -2.0890     2.0500     2.0980 hn         1 EGE       0.475500
     43 H15         -7.4920    -0.7110     0.4010 ho         1 EGE       0.561000
@<TRIPOS>BOND
     1     1     2 1   
     2     1    24 1   
     3     1    25 1   
     4     2     3 ar  
     5     2     4 ar  
     6     3     7 ar  
     7     3    30 1   
     8     4     5 ar  
     9     4    26 1   
    10     5     6 ar  
    11     5    31 1   
    12     6     7 ar  
    13     6    23 1   
    14     7    19 1   
    15     8     9 ar  
    16     8    11 ar  
    17     8    20 1   
    18     9    10 ar  
    19     9    32 1   
    20    10    13 ar  
    21    10    33 1   
    22    11    12 ar  
    23    11    34 1   
    24    12    13 ar  
    25    12    35 1   
    26    13    29 1   
    27    14    18 ar  
    28    14    21 1   
    29    14    22 ar  
    30    15    16 ar  
    31    15    22 ar  
    32    15    36 1   
    33    16    17 ar  
    34    16    37 1   
    35    17    18 ar  
    36    17    38 1   
    37    18    39 1   
    38    19    20 2   
    39    21    29 1   
    40    21    40 1   
    41    23    41 1   
    42    23    42 1   
    43    26    43 1   
    44    27    29 2   
    45    28    29 2   
@<TRIPOS>SUBSTRUCTURE
     1 EGE         1 TEMP              0 ****  ****    0 ROOT
