@<TRIPOS>MOLECULE
EGF
   87    90     1     0     0
SMALL
No Charge or Current Charge


@<TRIPOS>ATOM
      1 C1           5.8260    11.1630     8.1580 c3         1 EGF      -0.135400
      2 C10          5.6420     6.6850    -5.1570 c3         1 EGF       0.127900
      3 C11          4.5590     7.7940    -5.2220 c3         1 EGF      -0.073400
      4 C12          3.5560     7.8320    -4.0330 c5         1 EGF      -0.152700
      5 C13          2.6040     6.6070    -3.9250 c5         1 EGF      -0.094400
      6 C14          1.4820     7.1770    -3.0160 c5         1 EGF       0.098000
      7 C15          2.5700     9.0070    -4.0850 c          1 EGF       0.560000
      8 C16          6.5060     6.6610    -6.4050 c2         1 EGF      -0.171200
      9 C17          7.3600     5.6820    -6.8040 ce         1 EGF      -0.238200
     10 C18          7.6120     4.3840    -6.1130 c          1 EGF       0.597300
     11 C19          9.2830     2.6580    -5.9370 c3         1 EGF       0.204800
     12 C2           5.7640    10.4640     6.8320 cc         1 EGF       0.172300
     13 C20          9.8800     3.2010    -4.6490 c2         1 EGF      -0.255200
     14 C21         10.5310     4.3700    -4.5200 c2         1 EGF      -0.180200
     15 C22         11.0980     4.9230    -3.2280 c3         1 EGF      -0.076200
     16 C23         10.8260     6.4360    -3.0220 c3         1 EGF       0.163600
     17 C24          8.7270     6.1460    -1.7170 c3         1 EGF       0.210600
     18 C25          9.5260     6.4170    -0.4330 ca         1 EGF      -0.134300
     19 C26          9.9330     5.3420     0.3840 ca         1 EGF      -0.090000
     20 C27         10.6530     5.5820     1.5670 ca         1 EGF      -0.105500
     21 C28         10.9710     6.8980     1.9440 ca         1 EGF      -0.102000
     22 C29         10.5690     7.9740     1.1360 ca         1 EGF      -0.105500
     23 C3           5.9080     9.1570     6.4940 cd         1 EGF      -0.200000
     24 C30          9.8500     7.7350    -0.0480 ca         1 EGF      -0.090000
     25 C31          4.2280     6.4320     1.5480 c3         1 EGF      -0.066700
     26 C32          3.5370     5.7640     2.7610 c3         1 EGF      -0.093600
     27 C33          3.3180     7.5170     0.9190 c3         1 EGF      -0.093600
     28 C4           5.7500     9.0800     5.0940 cd         1 EGF       0.224500
     29 C5           5.8290     7.8170     4.2800 c          1 EGF       0.531600
     30 C6           5.6620     6.9580     1.8850 c3         1 EGF       0.035700
     31 C7           6.4140     7.4700     0.6210 c          1 EGF       0.589100
     32 C8           7.3050     6.7680    -1.6560 c3         1 EGF       0.036700
     33 C9           6.3930     6.2380    -2.7880 c          1 EGF       0.604100
     34 N1           5.6410     8.0150     2.9230 ns         1 EGF      -0.468900
     35 N2           6.6460     6.5150    -0.3460 ns         1 EGF      -0.505900
     36 N3           6.5230     6.8800    -4.0020 ns         1 EGF      -0.494900
     37 N4           1.4170     8.5530    -3.5040 ns         1 EGF      -0.515900
     38 N5           5.5170    10.2800     4.5670 nc         1 EGF      -0.356300
     39 O1           6.0440     6.7060     4.7520 o          1 EGF      -0.592100
     40 O3           5.5600     5.3580    -2.6030 o          1 EGF      -0.604100
     41 O4           2.6370    10.0560    -4.7060 o          1 EGF      -0.554000
     42 O5           6.9700     3.9520    -5.1660 o          1 EGF      -0.477000
     43 O6           8.6990     3.7570    -6.6600 os         1 EGF      -0.444100
     44 O7           9.4100     6.7160    -2.8630 os         1 EGF      -0.449000
     45 O8           5.5250    11.1870     5.6920 os         1 EGF      -0.059700
     46 H1           4.8770    11.6670     8.3750 hc         1 EGF       0.064367
     47 H2           6.0250    10.4510     8.9670 hc         1 EGF       0.064367
     48 H3           6.6220    11.9160     8.1630 hc         1 EGF       0.064367
     49 H4           5.1290     5.7170    -5.0660 h1         1 EGF       0.112700
     50 H5           5.0670     8.7640    -5.2950 hc         1 EGF       0.062700
     51 H6           3.9990     7.6760    -6.1590 hc         1 EGF       0.062700
     52 H7           4.1010     7.9240    -3.0870 hc         1 EGF       0.073700
     53 H8           2.2020     6.3270    -4.9060 hc         1 EGF       0.068700
     54 H9           3.0780     5.7170    -3.4980 hc         1 EGF       0.068700
     55 H10          0.5360     6.6340    -3.1400 h1         1 EGF       0.043700
     56 H11          1.7670     7.1440    -1.9550 h1         1 EGF       0.043700
     57 H12          6.4320     7.5680    -7.0080 ha         1 EGF       0.177000
     58 H14          7.9600     5.8300    -7.6990 ha         1 EGF       0.200000
     59 H16          8.5320     1.8860    -5.7190 h1         1 EGF       0.061700
     60 H17         10.0750     2.1900    -6.5360 h1         1 EGF       0.061700
     61 H18          9.7230     2.5530    -3.7850 ha         1 EGF       0.200000
     62 H19         10.6810     5.0150    -5.3890 ha         1 EGF       0.163000
     63 H20         10.7440     4.3510    -2.3630 hc         1 EGF       0.054200
     64 H21         12.1860     4.7890    -3.2410 hc         1 EGF       0.054200
     65 H22         11.3980     6.7890    -2.1540 h1         1 EGF       0.051200
     66 H23         11.2120     6.9810    -3.8930 h1         1 EGF       0.051200
     67 H24          8.6170     5.0600    -1.8440 h1         1 EGF       0.055700
     68 H25          9.6900     4.3190     0.1060 ha         1 EGF       0.113500
     69 H26         10.9630     4.7480     2.1930 ha         1 EGF       0.116000
     70 H27         11.5260     7.0830     2.8610 ha         1 EGF       0.111000
     71 H28         10.8130     8.9930     1.4260 ha         1 EGF       0.116000
     72 H29          6.1050     8.3330     7.1690 ha         1 EGF       0.168000
     73 H30          9.5420     8.5750    -0.6660 ha         1 EGF       0.113500
     74 H31          4.3400     5.6420     0.7950 hc         1 EGF       0.049700
     75 H32          4.1780     4.9860     3.1930 hc         1 EGF       0.042367
     76 H33          3.3110     6.4990     3.5430 hc         1 EGF       0.042367
     77 H34          2.5950     5.2940     2.4570 hc         1 EGF       0.042367
     78 H35          2.3400     7.0940     0.6580 hc         1 EGF       0.042367
     79 H36          3.1530     8.3470     1.6160 hc         1 EGF       0.042367
     80 H37          3.7590     7.9210    -0.0000 hc         1 EGF       0.042367
     81 H38          6.2570     6.1150     2.2600 h1         1 EGF       0.088700
     82 H39          7.3990     7.8500    -1.8040 h1         1 EGF       0.098700
     83 H40          5.5130     8.9780     2.6260 hn         1 EGF       0.346500
     84 H41          6.2930     5.5820    -0.1640 hn         1 EGF       0.324500
     85 H42          7.2740     7.5550    -4.0800 hn         1 EGF       0.319500
     86 H43          0.5950     9.1460    -3.5150 hn         1 EGF       0.326500
     87 O2           6.7550     8.6370     0.4730 o          1 EGF      -0.581100
@<TRIPOS>BOND
     1     1    12 1   
     2     1    46 1   
     3     1    47 1   
     4     1    48 1   
     5     2     3 1   
     6     2     8 1   
     7     2    36 1   
     8     2    49 1   
     9     3     4 1   
    10     3    50 1   
    11     3    51 1   
    12     4     5 1   
    13     4     7 1   
    14     4    52 1   
    15     5     6 1   
    16     5    53 1   
    17     5    54 1   
    18     6    37 1   
    19     6    55 1   
    20     6    56 1   
    21     7    37 1   
    22     7    41 2   
    23     8     9 2   
    24     8    57 1   
    25     9    10 1   
    26     9    58 1   
    27    10    42 2   
    28    10    43 1   
    29    11    13 1   
    30    11    43 1   
    31    11    59 1   
    32    11    60 1   
    33    12    23 2   
    34    12    45 1   
    35    13    14 2   
    36    13    61 1   
    37    14    15 1   
    38    14    62 1   
    39    15    16 1   
    40    15    63 1   
    41    15    64 1   
    42    16    44 1   
    43    16    65 1   
    44    16    66 1   
    45    17    18 1   
    46    17    32 1   
    47    17    44 1   
    48    17    67 1   
    49    18    19 ar  
    50    18    24 ar  
    51    19    20 ar  
    52    19    68 1   
    53    20    21 ar  
    54    20    69 1   
    55    21    22 ar  
    56    21    70 1   
    57    22    24 ar  
    58    22    71 1   
    59    23    28 1   
    60    23    72 1   
    61    24    73 1   
    62    25    26 1   
    63    25    27 1   
    64    25    30 1   
    65    25    74 1   
    66    26    75 1   
    67    26    76 1   
    68    26    77 1   
    69    27    78 1   
    70    27    79 1   
    71    27    80 1   
    72    28    29 1   
    73    28    38 2   
    74    29    34 1   
    75    29    39 2   
    76    30    31 1   
    77    30    34 1   
    78    30    81 1   
    79    31    35 1   
    80    31    87 2   
    81    32    33 1   
    82    32    35 1   
    83    32    82 1   
    84    33    36 1   
    85    33    40 2   
    86    34    83 1   
    87    35    84 1   
    88    36    85 1   
    89    37    86 1   
    90    38    45 1   
@<TRIPOS>SUBSTRUCTURE
     1 EGF         1 TEMP              0 ****  ****    0 ROOT
