@<TRIPOS>MOLECULE
EGF
   87    90     1     0     0
SMALL
abcg2


@<TRIPOS>ATOM
      1 C1           6.6310    10.8160     7.7000 c3         1 EGF      -0.135400
      2 C10          5.7190     6.9160    -4.8350 c3         1 EGF       0.127900
      3 C11          4.3830     7.6530    -4.7330 c3         1 EGF      -0.073400
      4 C12          3.5820     7.2680    -3.5010 c5         1 EGF      -0.152700
      5 C13          3.1210     5.8130    -3.4310 c5         1 EGF      -0.094400
      6 C14          1.8350     5.8780    -2.6050 c5         1 EGF       0.098000
      7 C15          2.2860     8.0550    -3.3670 c          1 EGF       0.560000
      8 C16          6.4680     7.3630    -6.0640 c2         1 EGF      -0.171200
      9 C17          7.2380     6.6280    -6.8620 ce         1 EGF      -0.238200
     10 C18          7.5040     5.1850    -6.6650 c          1 EGF       0.597300
     11 C19          9.2840     3.6250    -6.5330 c3         1 EGF       0.204800
     12 C2           6.2870    10.1220     6.4400 cc         1 EGF       0.172300
     13 C20          9.3920     3.5280    -5.0420 c2         1 EGF      -0.255200
     14 C21         10.4750     3.9320    -4.3860 c2         1 EGF      -0.180200
     15 C22         10.6500     3.9320    -2.9030 c3         1 EGF      -0.076200
     16 C23         10.8780     5.3340    -2.3420 c3         1 EGF       0.163600
     17 C24          8.9000     6.0040    -1.2210 c3         1 EGF       0.210600
     18 C25          9.5440     6.5560     0.0300 ca         1 EGF      -0.134300
     19 C26          9.3920     5.9020     1.2450 ca         1 EGF      -0.090000
     20 C27          9.9440     6.4280     2.4070 ca         1 EGF      -0.105500
     21 C28         10.6630     7.6130     2.3580 ca         1 EGF      -0.102000
     22 C29         10.8230     8.2720     1.1450 ca         1 EGF      -0.105500
     23 C3           6.6430     8.9280     5.9070 cd         1 EGF      -0.200000
     24 C30         10.2640     7.7480    -0.0120 ca         1 EGF      -0.090000
     25 C31          3.8430     7.0220     0.8030 c3         1 EGF      -0.066700
     26 C32          2.8460     6.4600     1.8110 c3         1 EGF      -0.093600
     27 C33          3.3390     8.3350     0.2120 c3         1 EGF      -0.093600
     28 C4           5.9550     8.9000     4.6730 cd         1 EGF       0.224500
     29 C5           5.9940     7.8130     3.6570 c          1 EGF       0.531600
     30 C6           5.2450     7.1310     1.4380 c3         1 EGF       0.035700
     31 C7           6.2920     7.5730     0.4090 c          1 EGF       0.589100
     32 C8           7.6030     6.7650    -1.5240 c3         1 EGF       0.036700
     33 C9           6.9310     6.2330    -2.7900 c          1 EGF       0.604100
     34 N1           5.2530     8.0270     2.5610 ns         1 EGF      -0.468900
     35 N2           6.6550     6.5990    -0.4480 ns         1 EGF      -0.505900
     36 N3           6.5380     7.1740    -3.6610 ns         1 EGF      -0.494900
     37 N4           1.3530     7.2120    -2.8930 ns         1 EGF      -0.515900
     38 N5           5.2530     9.9820     4.4960 nc         1 EGF      -0.356300
     39 O1           6.6640     6.8150     3.8650 o          1 EGF      -0.592100
     40 O3           6.7250     5.0370    -2.9180 o          1 EGF      -0.604100
     41 O4           2.1270     9.2360    -3.6270 o          1 EGF      -0.554000
     42 O5           6.7030     4.3600    -6.3010 o          1 EGF      -0.477000
     43 O6           8.7770     4.9160    -6.9270 os         1 EGF      -0.444100
     44 O7           9.7150     6.1420    -2.3570 os         1 EGF      -0.449000
     45 O8           5.4550    10.7440     5.5910 os         1 EGF      -0.059700
     46 H1           5.7400    11.0310     8.2900 hc         1 EGF       0.064367
     47 H2           7.2930    10.1920     8.2940 hc         1 EGF       0.064367
     48 H3           7.1370    11.7620     7.5030 hc         1 EGF       0.064367
     49 H4           5.5420     5.8440    -4.8700 h1         1 EGF       0.112700
     50 H5           4.5660     8.7320    -4.7300 hc         1 EGF       0.062700
     51 H6           3.8030     7.4350    -5.6350 hc         1 EGF       0.062700
     52 H7           4.1700     7.5070    -2.6050 hc         1 EGF       0.073700
     53 H8           2.8980     5.4460    -4.4360 hc         1 EGF       0.068700
     54 H9           3.8590     5.1460    -2.9900 hc         1 EGF       0.068700
     55 H10          1.1060     5.1240    -2.9010 h1         1 EGF       0.043700
     56 H11          2.0340     5.7510    -1.5360 h1         1 EGF       0.043700
     57 H12          6.4120     8.4280    -6.2760 ha         1 EGF       0.177000
     58 H14          7.7860     7.1150    -7.6600 ha         1 EGF       0.200000
     59 H16          8.6630     2.8320    -6.9510 h1         1 EGF       0.061700
     60 H17         10.2670     3.5720    -6.9990 h1         1 EGF       0.061700
     61 H18          8.5340     3.1530    -4.4950 ha         1 EGF       0.200000
     62 H19         11.3210     4.3110    -4.9560 ha         1 EGF       0.163000
     63 H20          9.8030     3.4490    -2.4090 hc         1 EGF       0.054200
     64 H21         11.5360     3.3410    -2.6510 hc         1 EGF       0.054200
     65 H22         11.2840     5.2580    -1.3270 h1         1 EGF       0.051200
     66 H23         11.6290     5.8520    -2.9430 h1         1 EGF       0.051200
     67 H24          8.6410     4.9490    -1.0460 h1         1 EGF       0.055700
     68 H25          8.8410     4.9690     1.2850 ha         1 EGF       0.113500
     69 H26          9.8160     5.9080     3.3480 ha         1 EGF       0.116000
     70 H27         11.0980     8.0230     3.2600 ha         1 EGF       0.111000
     71 H28         11.3830     9.1970     1.1000 ha         1 EGF       0.116000
     72 H29          7.2980     8.1840     6.3260 ha         1 EGF       0.168000
     73 H30         10.3950     8.2700    -0.9520 ha         1 EGF       0.113500
     74 H31          3.9360     6.2980    -0.0130 hc         1 EGF       0.049700
     75 H32          3.1890     5.5120     2.2290 hc         1 EGF       0.042367
     76 H33          2.6800     7.1520     2.6370 hc         1 EGF       0.042367
     77 H34          1.8840     6.2820     1.3290 hc         1 EGF       0.042367
     78 H35          2.3670     8.1790    -0.2560 hc         1 EGF       0.042367
     79 H36          3.2000     9.1040     0.9760 hc         1 EGF       0.042367
     80 H37          4.0060     8.7380    -0.5510 hc         1 EGF       0.042367
     81 H38          5.5160     6.1380     1.8050 h1         1 EGF       0.088700
     82 H39          7.8250     7.8300    -1.6140 h1         1 EGF       0.098700
     83 H40          4.7950     8.9220     2.4710 hn         1 EGF       0.346500
     84 H41          6.2930     5.6670    -0.3030 hn         1 EGF       0.324500
     85 H42          6.7410     8.1400    -3.4470 hn         1 EGF       0.319500
     86 H43          0.4390     7.5320    -2.6100 hn         1 EGF       0.326500
     87 O2           6.7220     8.7100     0.3700 o          1 EGF      -0.581100
@<TRIPOS>BOND
     1     1    12 1   
     2     1    46 1   
     3     1    47 1   
     4     1    48 1   
     5     2     3 1   
     6     2     8 1   
     7     2    36 1   
     8     2    49 1   
     9     3     4 1   
    10     3    50 1   
    11     3    51 1   
    12     4     5 1   
    13     4     7 1   
    14     4    52 1   
    15     5     6 1   
    16     5    53 1   
    17     5    54 1   
    18     6    37 1   
    19     6    55 1   
    20     6    56 1   
    21     7    37 1   
    22     7    41 2   
    23     8     9 2   
    24     8    57 1   
    25     9    10 1   
    26     9    58 1   
    27    10    42 2   
    28    10    43 1   
    29    11    13 1   
    30    11    43 1   
    31    11    59 1   
    32    11    60 1   
    33    12    23 2   
    34    12    45 1   
    35    13    14 2   
    36    13    61 1   
    37    14    15 1   
    38    14    62 1   
    39    15    16 1   
    40    15    63 1   
    41    15    64 1   
    42    16    44 1   
    43    16    65 1   
    44    16    66 1   
    45    17    18 1   
    46    17    32 1   
    47    17    44 1   
    48    17    67 1   
    49    18    19 ar  
    50    18    24 ar  
    51    19    20 ar  
    52    19    68 1   
    53    20    21 ar  
    54    20    69 1   
    55    21    22 ar  
    56    21    70 1   
    57    22    24 ar  
    58    22    71 1   
    59    23    28 1   
    60    23    72 1   
    61    24    73 1   
    62    25    26 1   
    63    25    27 1   
    64    25    30 1   
    65    25    74 1   
    66    26    75 1   
    67    26    76 1   
    68    26    77 1   
    69    27    78 1   
    70    27    79 1   
    71    27    80 1   
    72    28    29 1   
    73    28    38 2   
    74    29    34 1   
    75    29    39 2   
    76    30    31 1   
    77    30    34 1   
    78    30    81 1   
    79    31    35 1   
    80    31    87 2   
    81    32    33 1   
    82    32    35 1   
    83    32    82 1   
    84    33    36 1   
    85    33    40 2   
    86    34    83 1   
    87    35    84 1   
    88    36    85 1   
    89    37    86 1   
    90    38    45 1   
@<TRIPOS>SUBSTRUCTURE
     1 EGF         1 TEMP              0 ****  ****    0 ROOT
