@<TRIPOS>MOLECULE
EGG
   51    54     1     0     0
SMALL
abcg2


@<TRIPOS>ATOM
      1 O1          -2.2560    -0.3620     0.5990 os         1 EGG      -0.334100
      2 C2          -1.9560    -1.1100    -0.5650 c6         1 EGG       0.226600
      3 C3          -1.2940    -0.2240    -1.6130 c6         1 EGG       0.143300
      4 C4          -2.2440     0.8910    -2.0060 c6         1 EGG      -0.027100
      5 C5          -2.8680     1.5020    -0.7840 ca         1 EGG      -0.227300
      6 C6          -3.4980     2.7480    -0.8310 ca         1 EGG       0.217100
      7 C7          -4.0500     3.3340     0.3020 ca         1 EGG      -0.338000
      8 C8          -3.9740     2.6610     1.5190 ca         1 EGG       0.209100
      9 C9          -3.3660     1.4160     1.6010 ca         1 EGG      -0.219000
     10 C10         -2.8280     0.8540     0.4480 ca         1 EGG       0.215100
     11 C11         -1.1010    -2.2840    -0.1780 ca         1 EGG      -0.045300
     12 C12         -1.2120    -3.4490    -0.9220 ca         1 EGG      -0.153500
     13 C13         -0.3920    -4.5370    -0.6490 ca         1 EGG       0.120100
     14 C14          0.5360    -4.4660     0.3870 ca         1 EGG       0.023100
     15 C15          0.6350    -3.2960     1.1370 ca         1 EGG       0.120100
     16 C16         -0.1730    -2.2030     0.8540 ca         1 EGG      -0.153500
     17 O17         -0.1190     0.3030    -1.0000 os         1 EGG      -0.434100
     18 C18          0.9240     0.6180    -1.7570 c          1 EGG       0.614700
     19 O18         -3.5440     3.3520    -2.0330 oh         1 EGG      -0.529100
     20 C19          2.0670     1.1110    -0.9570 ca         1 EGG      -0.101600
     21 O19         -4.4910     3.1770     2.6510 oh         1 EGG      -0.528100
     22 C20          3.2320     1.4570    -1.6330 ca         1 EGG      -0.120000
     23 O20         -0.5260    -5.6540    -1.3940 oh         1 EGG      -0.542600
     24 C21          4.3320     1.9190    -0.9280 ca         1 EGG       0.100100
     25 O21          1.2920    -5.5660     0.6270 oh         1 EGG      -0.556100
     26 C22          4.2670     2.0410     0.4610 ca         1 EGG       0.045100
     27 O22          1.5570    -3.3090     2.1260 oh         1 EGG      -0.542600
     28 C23          3.0940     1.6920     1.1330 ca         1 EGG       0.100100
     29 O23          0.9360     0.5080    -2.9600 o          1 EGG      -0.484000
     30 C24          1.9950     1.2270     0.4300 ca         1 EGG      -0.120000
     31 O24          5.4490     2.2440    -1.6060 oh         1 EGG      -0.542100
     32 O25          5.3640     2.5020     1.0930 oh         1 EGG      -0.552100
     33 O26          3.1250     1.8390     2.4740 oh         1 EGG      -0.542100
     34 H2          -2.8890    -1.4800    -1.0120 h1         1 EGG       0.066700
     35 H3          -1.0370    -0.8300    -2.4840 h1         1 EGG       0.085700
     36 H4          -1.7170     1.6380    -2.6020 hc         1 EGG       0.072700
     37 H4A         -3.0060     0.4640    -2.6650 hc         1 EGG       0.072700
     38 H7          -4.5380     4.3010     0.2360 ha         1 EGG       0.117000
     39 H9          -3.3140     0.8860     2.5430 ha         1 EGG       0.145000
     40 H12         -1.9350    -3.5260    -1.7260 ha         1 EGG       0.131000
     41 H16         -0.0830    -1.3040     1.4490 ha         1 EGG       0.131000
     42 HO18        -3.9770     4.2100    -1.9650 ho         1 EGG       0.467000
     43 HO19        -4.9020     4.0300     2.4730 ho         1 EGG       0.467000
     44 H20          3.2950     1.3660    -2.7090 ha         1 EGG       0.146500
     45 HO20         0.1040    -6.3270    -1.1120 ho         1 EGG       0.480500
     46 HO21         2.0280    -5.3570     1.2140 ho         1 EGG       0.490000
     47 HO22         1.5780    -2.4640     2.5880 ho         1 EGG       0.480500
     48 H24          1.0920     0.9660     0.9670 ha         1 EGG       0.146500
     49 HO24         6.1470     2.5230    -1.0010 ho         1 EGG       0.482000
     50 HO25         5.2420     2.5050     2.0500 ho         1 EGG       0.494000
     51 HO26         2.2890     1.5690     2.8710 ho         1 EGG       0.482000
@<TRIPOS>BOND
     1     1     2 1   
     2     1    10 1   
     3     2     3 1   
     4     2    11 1   
     5     2    34 1   
     6     3     4 1   
     7     3    17 1   
     8     3    35 1   
     9     4     5 1   
    10     4    36 1   
    11     4    37 1   
    12     5     6 ar  
    13     5    10 ar  
    14     6     7 ar  
    15     6    19 1   
    16     7     8 ar  
    17     7    38 1   
    18     8     9 ar  
    19     8    21 1   
    20     9    10 ar  
    21     9    39 1   
    22    11    12 ar  
    23    11    16 ar  
    24    12    13 ar  
    25    12    40 1   
    26    13    14 ar  
    27    13    23 1   
    28    14    15 ar  
    29    14    25 1   
    30    15    16 ar  
    31    15    27 1   
    32    16    41 1   
    33    17    18 1   
    34    18    20 1   
    35    18    29 2   
    36    19    42 1   
    37    20    22 ar  
    38    20    30 ar  
    39    21    43 1   
    40    22    24 ar  
    41    22    44 1   
    42    23    45 1   
    43    24    26 ar  
    44    24    31 1   
    45    25    46 1   
    46    26    28 ar  
    47    26    32 1   
    48    27    47 1   
    49    28    30 ar  
    50    28    33 1   
    51    30    48 1   
    52    31    49 1   
    53    32    50 1   
    54    33    51 1   
@<TRIPOS>SUBSTRUCTURE
     1 EGG         1 TEMP              0 ****  ****    0 ROOT
