@<TRIPOS>MOLECULE
EGG
   51    54     1     0     0
SMALL
No Charge or Current Charge


@<TRIPOS>ATOM
      1 O1          -2.3390    -0.4850     0.5730 os         1 EGG      -0.334100
      2 C2          -1.9510    -1.2020    -0.6220 c6         1 EGG       0.226600
      3 C3          -1.2020    -0.2730    -1.6130 c6         1 EGG       0.143300
      4 C4          -2.1400     0.9000    -1.9860 c6         1 EGG      -0.027100
      5 C5          -2.8340     1.5020    -0.7520 ca         1 EGG      -0.227300
      6 C6          -3.4250     2.7800    -0.8060 ca         1 EGG       0.217100
      7 C7          -4.0400     3.3290     0.3260 ca         1 EGG      -0.338000
      8 C8          -4.0690     2.6050     1.5220 ca         1 EGG       0.209100
      9 C9          -3.4950     1.3340     1.5910 ca         1 EGG      -0.219000
     10 C10         -2.8890     0.7750     0.4590 ca         1 EGG       0.215100
     11 C11         -1.1420    -2.4500    -0.2330 ca         1 EGG      -0.045300
     12 C12         -1.3950    -3.6770    -0.8820 ca         1 EGG      -0.153500
     13 C13         -0.6600    -4.8230    -0.5430 ca         1 EGG       0.120100
     14 C14          0.3370    -4.7590     0.4490 ca         1 EGG       0.023100
     15 C15          0.5960    -3.5370     1.1010 ca         1 EGG       0.120100
     16 C16         -0.1410    -2.3890     0.7610 ca         1 EGG      -0.153500
     17 O17          0.0370     0.2110    -1.0380 os         1 EGG      -0.434100
     18 C18          1.0140     0.7710    -1.8190 c          1 EGG       0.614700
     19 O18         -3.4110     3.5020    -1.9580 oh         1 EGG      -0.529100
     20 C19          2.1970     1.2950    -1.0310 ca         1 EGG      -0.101600
     21 O19         -4.6610     3.1400     2.6210 oh         1 EGG      -0.528100
     22 C20          3.3460     1.7590    -1.7130 ca         1 EGG      -0.120000
     23 O20         -0.9060    -6.0060    -1.1720 oh         1 EGG      -0.542600
     24 C21          4.4500     2.2500    -0.9990 ca         1 EGG       0.100100
     25 O21          1.0580    -5.8800     0.7830 oh         1 EGG      -0.556100
     26 C22          4.4240     2.2900     0.4070 ca         1 EGG       0.045100
     27 O22          1.5650    -3.4770     2.0660 oh         1 EGG      -0.542600
     28 C23          3.2850     1.8360     1.0990 ca         1 EGG       0.100100
     29 O23          0.9460     0.8340    -3.0400 o          1 EGG      -0.484000
     30 C24          2.1780     1.3410     0.3860 ca         1 EGG      -0.120000
     31 O24          5.5550     2.6930    -1.6650 oh         1 EGG      -0.542100
     32 O25          5.5020     2.7720     1.1080 oh         1 EGG      -0.552100
     33 O26          3.2650     1.8850     2.4690 oh         1 EGG      -0.542100
     34 H2          -2.8770    -1.5350    -1.1130 h1         1 EGG       0.066700
     35 H3          -0.9660    -0.8550    -2.5170 h1         1 EGG       0.085700
     36 H4          -1.5780     1.6710    -2.5300 hc         1 EGG       0.072700
     37 H4A         -2.9070     0.5390    -2.6840 hc         1 EGG       0.072700
     38 H7          -4.4920     4.3160     0.2770 ha         1 EGG       0.117000
     39 H9          -3.5230     0.7740     2.5200 ha         1 EGG       0.145000
     40 H12         -2.1600    -3.7430    -1.6520 ha         1 EGG       0.131000
     41 H16          0.0600    -1.4450     1.2620 ha         1 EGG       0.131000
     42 HO18        -3.8710     4.3490    -1.7850 ho         1 EGG       0.467000
     43 HO19        -5.0020     4.0250     2.3770 ho         1 EGG       0.467000
     44 H20          3.3860     1.7370    -2.8000 ha         1 EGG       0.146500
     45 HO20        -0.2810    -6.6560    -0.7770 ho         1 EGG       0.480500
     46 HO21         1.6900    -5.6080     1.4880 ho         1 EGG       0.490000
     47 HO22         1.6030    -2.5620     2.4190 ho         1 EGG       0.480500
     48 H24          1.3020     0.9980     0.9310 ha         1 EGG       0.146500
     49 HO24         6.1910     2.9870    -0.9740 ho         1 EGG       0.482000
     50 HO25         5.2650     2.7080     2.0620 ho         1 EGG       0.494000
     51 HO26         2.3940     1.5610     2.7890 ho         1 EGG       0.482000
@<TRIPOS>BOND
     1     1     2 1   
     2     1    10 1   
     3     2     3 1   
     4     2    11 1   
     5     2    34 1   
     6     3     4 1   
     7     3    17 1   
     8     3    35 1   
     9     4     5 1   
    10     4    36 1   
    11     4    37 1   
    12     5     6 ar  
    13     5    10 ar  
    14     6     7 ar  
    15     6    19 1   
    16     7     8 ar  
    17     7    38 1   
    18     8     9 ar  
    19     8    21 1   
    20     9    10 ar  
    21     9    39 1   
    22    11    12 ar  
    23    11    16 ar  
    24    12    13 ar  
    25    12    40 1   
    26    13    14 ar  
    27    13    23 1   
    28    14    15 ar  
    29    14    25 1   
    30    15    16 ar  
    31    15    27 1   
    32    16    41 1   
    33    17    18 1   
    34    18    20 1   
    35    18    29 2   
    36    19    42 1   
    37    20    22 ar  
    38    20    30 ar  
    39    21    43 1   
    40    22    24 ar  
    41    22    44 1   
    42    23    45 1   
    43    24    26 ar  
    44    24    31 1   
    45    25    46 1   
    46    26    28 ar  
    47    26    32 1   
    48    27    47 1   
    49    28    30 ar  
    50    28    33 1   
    51    30    48 1   
    52    31    49 1   
    53    32    50 1   
    54    33    51 1   
@<TRIPOS>SUBSTRUCTURE
     1 EGG         1 TEMP              0 ****  ****    0 ROOT
