@<TRIPOS>MOLECULE
EGH
   42    44     1     0     0
SMALL
abcg2


@<TRIPOS>ATOM
      1 C10         -3.1260     1.5180     0.1230 ca         1 EGH       0.173100
      2 C13         -0.2330    -1.3240    -1.3190 c6         1 EGH       0.064900
      3 C15          0.5510     0.5340    -2.8590 c          1 EGH       0.573000
      4 C17          0.1940    -0.9230    -2.7350 c6         1 EGH      -0.161400
      5 C20          1.8090    -2.5000    -0.4180 ca         1 EGH       0.185000
      6 C22          0.9610    -1.4010    -0.3850 ca         1 EGH      -0.109300
      7 C24          2.3970    -0.4910     1.3270 ca         1 EGH      -0.035900
      8 C02         -3.7760    -0.0870     2.8040 c3         1 EGH       0.146900
      9 C03         -3.1900     0.1860     0.5610 ca         1 EGH       0.012100
     10 C04         -2.2620    -0.7320     0.0850 ca         1 EGH       0.166100
     11 O05         -2.2770    -2.0080     0.5470 os         1 EGH      -0.357100
     12 C06         -3.2480    -2.8530    -0.0600 c3         1 EGH       0.151900
     13 C07         -1.2800    -0.3620    -0.8330 ca         1 EGH      -0.186300
     14 C08         -1.2340     0.9620    -1.2500 ca         1 EGH       0.037000
     15 C09         -2.1510     1.9010    -0.7880 ca         1 EGH      -0.255000
     16 O11         -4.0500     2.3430     0.6360 os         1 EGH      -0.319100
     17 C12         -4.0480     3.6980     0.2280 c3         1 EGH       0.142900
     18 N14         -0.2220     1.3700    -2.1190 ns         1 EGH      -0.151000
     19 O16          1.4270     0.9520    -3.5940 o          1 EGH      -0.533000
     20 C18          3.2260    -1.6000     1.2760 ca         1 EGH      -0.057000
     21 C19          2.9210    -2.6200     0.3880 ca         1 EGH      -0.150000
     22 F21          1.5330    -3.4970    -1.2750 f          1 EGH      -0.179000
     23 C23          1.2770    -0.3890     0.5150 ca         1 EGH      -0.046000
     24 BR           2.7920     0.9090     2.5320 br         1 EGH      -0.093100
     25 H1          -0.6690    -2.3220    -1.3880 hc         1 EGH       0.083700
     26 H2           1.0320    -1.5210    -3.0900 hc         1 EGH       0.082200
     27 H3          -0.6400    -1.1100    -3.4200 hc         1 EGH       0.082200
     28 H4          -2.9360    -0.7440     3.0410 h1         1 EGH       0.038033
     29 H5          -3.5070     0.9380     3.0690 h1         1 EGH       0.038033
     30 H6          -4.6350    -0.3890     3.4000 h1         1 EGH       0.038033
     31 H7          -3.0920    -3.8530     0.3370 h1         1 EGH       0.042367
     32 H8          -4.2660    -2.5350     0.1730 h1         1 EGH       0.042367
     33 H9          -3.1270    -2.8830    -1.1470 h1         1 EGH       0.042367
     34 H10         -2.0850     2.9210    -1.1440 ha         1 EGH       0.127000
     35 H11         -4.8620     4.1800     0.7620 h1         1 EGH       0.044700
     36 H12         -3.1120     4.2010     0.4850 h1         1 EGH       0.044700
     37 H13         -4.2200     3.8000    -0.8460 h1         1 EGH       0.044700
     38 H14         -0.0750     2.3630    -2.2420 hn         1 EGH       0.160000
     39 H15          4.0980    -1.6840     1.9100 ha         1 EGH       0.134000
     40 H16          3.5460    -3.5010     0.3290 ha         1 EGH       0.136000
     41 H17          0.6320     0.4770     0.5880 ha         1 EGH       0.137000
     42 O01         -4.1550    -0.1950     1.4370 os         1 EGH      -0.338100
@<TRIPOS>BOND
     1     1     9 ar  
     2     1    15 ar  
     3     1    16 1   
     4     2     4 1   
     5     2     6 1   
     6     2    13 1   
     7     2    25 1   
     8     3     4 1   
     9     3    18 1   
    10     3    19 2   
    11     4    26 1   
    12     4    27 1   
    13     5     6 ar  
    14     5    21 ar  
    15     5    22 1   
    16     6    23 ar  
    17     7    20 ar  
    18     7    23 ar  
    19     7    24 1   
    20     8    28 1   
    21     8    29 1   
    22     8    30 1   
    23     8    42 1   
    24     9    10 ar  
    25     9    42 1   
    26    10    11 1   
    27    10    13 ar  
    28    11    12 1   
    29    12    31 1   
    30    12    32 1   
    31    12    33 1   
    32    13    14 ar  
    33    14    15 ar  
    34    14    18 1   
    35    15    34 1   
    36    16    17 1   
    37    17    35 1   
    38    17    36 1   
    39    17    37 1   
    40    18    38 1   
    41    20    21 ar  
    42    20    39 1   
    43    21    40 1   
    44    23    41 1   
@<TRIPOS>SUBSTRUCTURE
     1 EGH         1 TEMP              0 ****  ****    0 ROOT
