@<TRIPOS>MOLECULE
EGH
   42    44     1     0     0
SMALL
No Charge or Current Charge


@<TRIPOS>ATOM
      1 C10         -3.1750     1.5800     0.0540 ca         1 EGH       0.173100
      2 C13         -0.1520    -1.2040    -1.4360 c6         1 EGH       0.064900
      3 C15          0.6120     0.7340    -2.9730 c          1 EGH       0.573000
      4 C17          0.4150    -0.7770    -2.8160 c6         1 EGH      -0.161400
      5 C20          1.6120    -2.6480    -0.2540 ca         1 EGH       0.185000
      6 C22          0.9860    -1.3910    -0.4160 ca         1 EGH      -0.109300
      7 C24          2.4730    -0.4790     1.2980 ca         1 EGH      -0.035900
      8 C02         -3.5820    -0.5230     2.8190 c3         1 EGH       0.146900
      9 C03         -3.1500     0.2540     0.5400 ca         1 EGH       0.012100
     10 C04         -2.1910    -0.6640     0.0320 ca         1 EGH       0.166100
     11 O05         -2.1610    -1.9810     0.4410 os         1 EGH      -0.357100
     12 C06         -3.2900    -2.8370     0.1930 c3         1 EGH       0.151900
     13 C07         -1.2390    -0.2380    -0.9200 ca         1 EGH      -0.186300
     14 C08         -1.2640     1.0920    -1.3780 ca         1 EGH       0.037000
     15 C09         -2.2250     1.9940    -0.9030 ca         1 EGH      -0.255000
     16 O11         -4.1260     2.4510     0.5600 os         1 EGH      -0.319100
     17 C12         -4.2220     3.8220     0.1350 c3         1 EGH       0.142900
     18 N14         -0.3010     1.5210    -2.3080 ns         1 EGH      -0.151000
     19 O16          1.5290     1.2070    -3.6320 o          1 EGH      -0.533000
     20 C18          3.0840    -1.7330     1.4550 ca         1 EGH      -0.057000
     21 C19          2.6520    -2.8180     0.6750 ca         1 EGH      -0.150000
     22 F21          1.2280    -3.7100    -0.9980 f          1 EGH      -0.179000
     23 C23          1.4330    -0.3050     0.3690 ca         1 EGH      -0.046000
     24 Br           3.0580     1.0050     2.3540 br         1 EGH      -0.093100
     25 H1          -0.6330    -2.1800    -1.5920 hc         1 EGH       0.083700
     26 H2           1.3200    -1.3230    -3.1120 hc         1 EGH       0.082200
     27 H3          -0.3690    -1.0270    -3.5430 hc         1 EGH       0.082200
     28 H4          -2.9800    -1.4370     2.7540 h1         1 EGH       0.038033
     29 H5          -2.9680     0.2630     3.2760 h1         1 EGH       0.038033
     30 H6          -4.4300    -0.7240     3.4860 h1         1 EGH       0.038033
     31 H7          -3.0780    -3.8550     0.5430 h1         1 EGH       0.042367
     32 H8          -4.1880    -2.4820     0.7120 h1         1 EGH       0.042367
     33 H9          -3.5080    -2.8840    -0.8810 h1         1 EGH       0.042367
     34 H10         -2.2140     3.0120    -1.2800 ha         1 EGH       0.127000
     35 H11         -5.0440     4.3250     0.6590 h1         1 EGH       0.044700
     36 H12         -3.2950     4.3660     0.3570 h1         1 EGH       0.044700
     37 H13         -4.4190     3.8840    -0.9430 h1         1 EGH       0.044700
     38 H14         -0.2180     2.5200    -2.4420 hn         1 EGH       0.160000
     39 H15          3.8890    -1.8630     2.1760 ha         1 EGH       0.134000
     40 H16          3.1220    -3.7910     0.7870 ha         1 EGH       0.136000
     41 H17          0.9800     0.6770     0.2660 ha         1 EGH       0.137000
     42 O01         -4.0540    -0.1050     1.5250 os         1 EGH      -0.338100
@<TRIPOS>BOND
     1     1     9 ar  
     2     1    15 ar  
     3     1    16 1   
     4     2     4 1   
     5     2     6 1   
     6     2    13 1   
     7     2    25 1   
     8     3     4 1   
     9     3    18 1   
    10     3    19 2   
    11     4    26 1   
    12     4    27 1   
    13     5     6 ar  
    14     5    21 ar  
    15     5    22 1   
    16     6    23 ar  
    17     7    20 ar  
    18     7    23 ar  
    19     7    24 1   
    20     8    28 1   
    21     8    29 1   
    22     8    30 1   
    23     8    42 1   
    24     9    10 ar  
    25     9    42 1   
    26    10    11 1   
    27    10    13 ar  
    28    11    12 1   
    29    12    31 1   
    30    12    32 1   
    31    12    33 1   
    32    13    14 ar  
    33    14    15 ar  
    34    14    18 1   
    35    15    34 1   
    36    16    17 1   
    37    17    35 1   
    38    17    36 1   
    39    17    37 1   
    40    18    38 1   
    41    20    21 ar  
    42    20    39 1   
    43    21    40 1   
    44    23    41 1   
@<TRIPOS>SUBSTRUCTURE
     1 EGH         1 TEMP              0 ****  ****    0 ROOT
