@<TRIPOS>MOLECULE
EGJ
   61    65     1     0     0
SMALL
abcg2


@<TRIPOS>ATOM
      1 C7           5.6370     1.2090    -0.6640 ca         1 EGJ      -0.087000
      2 C6           3.9800     1.1600     1.0780 ca         1 EGJ      -0.083000
      3 C1          -6.8910    -1.0890    -0.8510 ca         1 EGJ      -0.086000
      4 C5          -4.8160    -2.0100    -0.0410 ca         1 EGJ      -0.022000
      5 C4          -6.3850     0.1800    -0.7790 ca         1 EGJ      -0.140000
      6 C3           4.8690     1.8700     0.2810 ca         1 EGJ      -0.133000
      7 C2          -6.0990    -2.1950    -0.4800 ca         1 EGJ      -0.146000
      8 C8          -4.5060     1.6900    -0.2540 ca         1 EGJ      -0.229000
      9 C9           0.7860     3.2640    -0.2630 cc         1 EGJ       0.318900
     10 C10          0.8620     4.3970     0.4740 cd         1 EGJ      -0.293000
     11 C11         -5.0620     0.3990    -0.3270 ca         1 EGJ       0.020000
     12 C12         -4.2630    -0.7120     0.0490 ca         1 EGJ      -0.089000
     13 C13          3.8360    -0.2170     0.9540 ca         1 EGJ      -0.097300
     14 C14          4.6120    -0.8570     0.0010 ca         1 EGJ       0.210000
     15 C15          5.5060    -0.1650    -0.7990 ca         1 EGJ       0.060000
     16 C16         -2.9440    -0.4440     0.5230 ca         1 EGJ       0.474300
     17 C17         -3.2270     1.8200     0.2220 ca         1 EGJ       0.604900
     18 C18         -1.3330     3.3720     0.2800 cd         1 EGJ       0.740300
     19 C19         -1.7830    -2.6660    -1.1930 c          1 EGJ       0.714000
     20 C20         -0.0850    -0.8930    -0.5430 c6         1 EGJ      -0.046400
     21 C21         -0.0590    -3.0790     0.6080 c6         1 EGJ      -0.043400
     22 C22          0.8900    -0.3950     0.5060 c6         1 EGJ       0.168800
     23 C23          1.0100    -2.5680     1.5850 c6         1 EGJ       0.189500
     24 C24         -0.9770    -2.0240    -0.0340 c6         1 EGJ      -0.163000
     25 C25          0.4960    -2.2780     3.0060 c3         1 EGJ      -0.122100
     26 C26          2.8470    -0.9940     1.7830 c3         1 EGJ       0.229100
     27 C27         -2.0140    -1.5210     1.0060 c3         1 EGJ      -0.118700
     28 N28         -0.4510     2.6970    -0.3820 nc         1 EGJ      -0.651000
     29 N29         -2.4820     0.7780     0.6210 nb         1 EGJ      -0.716000
     30 N30          1.7460    -1.4680     0.9740 n3         1 EGJ      -0.726600
     31 N31         -2.6640     3.0830     0.3780 nu         1 EGJ      -0.913800
     32 F34          4.5160    -2.1800    -0.1470 f          1 EGJ      -0.148000
     33 S35         -0.6970     4.7700     1.1080 ss         1 EGJ      -0.169400
     34 CL1          6.4470    -1.0330    -1.9560 cl         1 EGJ      -0.190000
     35 H43          6.3340     1.7490    -1.2910 ha         1 EGJ       0.121000
     36 H42          3.3750     1.6850     1.8080 ha         1 EGJ       0.120000
     37 H37         -7.9040    -1.2490    -1.1960 ha         1 EGJ       0.094000
     38 H41         -4.2160    -2.8720     0.2150 ha         1 EGJ       0.155000
     39 H40         -6.9910     1.0310    -1.0650 ha         1 EGJ       0.097000
     40 H39          4.9630     2.9410     0.3920 ha         1 EGJ       0.112000
     41 H38         -6.5100    -3.1940    -0.5470 ha         1 EGJ       0.109000
     42 H44         -5.0830     2.5540    -0.5620 ha         1 EGJ       0.105000
     43 H47         -0.6680    -0.0470    -0.8990 hc         1 EGJ       0.064700
     44 H48          0.4940    -1.2650    -1.3940 hc         1 EGJ       0.064700
     45 H50          0.4780    -3.5820    -0.2030 hc         1 EGJ       0.052200
     46 H49         -0.6500    -3.8500     1.1050 hc         1 EGJ       0.052200
     47 H51          1.5200     0.3720     0.0510 h1         1 EGJ       0.020700
     48 H52          0.3520     0.1130     1.3230 h1         1 EGJ       0.020700
     49 H53          1.7250    -3.3930     1.6900 h1         1 EGJ       0.032700
     50 H54         -0.2290    -3.0320     3.3170 hc         1 EGJ       0.026367
     51 H55          1.3140    -2.2990     3.7280 hc         1 EGJ       0.026367
     52 H56          0.0160    -1.3040     3.1010 hc         1 EGJ       0.026367
     53 H58          3.3450    -1.8570     2.2340 h1         1 EGJ       0.030700
     54 H57          2.5240    -0.3550     2.6200 h1         1 EGJ       0.030700
     55 H60         -1.4860    -1.0960     1.8570 hc         1 EGJ       0.042700
     56 H59         -2.5670    -2.3810     1.3860 hc         1 EGJ       0.042700
     57 H61         -3.3040     3.8590     0.4340 hn         1 EGJ       0.500000
     58 O32         -2.1630    -3.8450    -1.0310 o          1 EGJ      -0.726500
     59 H45          1.6260     2.8100    -0.7690 h4         1 EGJ       0.042100
     60 O33         -2.0220    -1.9510    -2.1850 o          1 EGJ      -0.726500
     61 H46          1.7170     5.0260     0.6630 h4         1 EGJ       0.149000
@<TRIPOS>BOND
     1     1     6 ar  
     2     1    15 ar  
     3     1    35 1   
     4     2     6 ar  
     5     2    13 ar  
     6     2    36 1   
     7     3     5 ar  
     8     3     7 ar  
     9     3    37 1   
    10     4     7 ar  
    11     4    12 ar  
    12     4    38 1   
    13     5    11 ar  
    14     5    39 1   
    15     6    40 1   
    16     7    41 1   
    17     8    11 ar  
    18     8    17 ar  
    19     8    42 1   
    20     9    10 2   
    21     9    28 1   
    22     9    59 1   
    23    10    33 1   
    24    10    61 1   
    25    11    12 ar  
    26    12    16 ar  
    27    13    14 ar  
    28    13    26 1   
    29    14    15 ar  
    30    14    32 1   
    31    15    34 1   
    32    16    27 1   
    33    16    29 ar  
    34    17    29 ar  
    35    17    31 1   
    36    18    28 2   
    37    18    31 1   
    38    18    33 1   
    39    19    24 1   
    40    19    58 1   
    41    19    60 1   
    42    20    22 1   
    43    20    24 1   
    44    20    43 1   
    45    20    44 1   
    46    21    23 1   
    47    21    24 1   
    48    21    45 1   
    49    21    46 1   
    50    22    30 1   
    51    22    47 1   
    52    22    48 1   
    53    23    25 1   
    54    23    30 1   
    55    23    49 1   
    56    24    27 1   
    57    25    50 1   
    58    25    51 1   
    59    25    52 1   
    60    26    30 1   
    61    26    53 1   
    62    26    54 1   
    63    27    55 1   
    64    27    56 1   
    65    31    57 1   
@<TRIPOS>SUBSTRUCTURE
     1 EGJ         1 TEMP              0 ****  ****    0 ROOT
