@<TRIPOS>MOLECULE
EGJ
   61    65     1     0     0
SMALL
No Charge or Current Charge


@<TRIPOS>ATOM
      1 C7           5.5290     1.5680    -0.5540 ca         1 EGJ      -0.087000
      2 C6           3.7900     1.2000     1.1100 ca         1 EGJ      -0.083000
      3 C1          -7.0070    -0.9030    -0.8500 ca         1 EGJ      -0.086000
      4 C5          -4.9670    -1.9270     0.0070 ca         1 EGJ      -0.022000
      5 C4          -6.3900     0.3560    -0.8120 ca         1 EGJ      -0.140000
      6 C3           4.6110     2.0770     0.3790 ca         1 EGJ      -0.133000
      7 C2          -6.2960    -2.0410    -0.4410 ca         1 EGJ      -0.146000
      8 C8          -4.4390     1.7280    -0.3160 ca         1 EGJ      -0.229000
      9 C9           0.9470     3.3020    -0.2410 cc         1 EGJ       0.318900
     10 C10          0.9500     4.5100     0.4130 cd         1 EGJ      -0.293000
     11 C11         -5.0620     0.4740    -0.3640 ca         1 EGJ       0.020000
     12 C12         -4.3330    -0.6620     0.0500 ca         1 EGJ      -0.089000
     13 C13          3.8780    -0.1940     0.9110 ca         1 EGJ      -0.097300
     14 C14          4.8050    -0.6990    -0.0250 ca         1 EGJ       0.210000
     15 C15          5.6280     0.1810    -0.7570 ca         1 EGJ       0.060000
     16 C16         -2.9960    -0.4690     0.4990 ca         1 EGJ       0.474300
     17 C17         -3.1210     1.8090     0.1350 ca         1 EGJ       0.604900
     18 C18         -1.1890     3.3910     0.2740 cd         1 EGJ       0.740300
     19 C19         -1.8480    -2.9320    -1.1330 c          1 EGJ       0.714000
     20 C20         -0.0880    -1.1500    -0.6190 c6         1 EGJ      -0.046400
     21 C21         -0.1000    -3.2760     0.6910 c6         1 EGJ      -0.043400
     22 C22          0.9300    -0.5680     0.3880 c6         1 EGJ       0.168800
     23 C23          1.0460    -2.7210     1.6060 c6         1 EGJ       0.189500
     24 C24         -1.0510    -2.2160     0.0090 c6         1 EGJ      -0.163000
     25 C25          0.5740    -2.3450     3.0450 c3         1 EGJ      -0.122100
     26 C26          2.9720    -1.1340     1.6990 c3         1 EGJ       0.229100
     27 C27         -2.0880    -1.5920     1.0330 c3         1 EGJ      -0.118700
     28 N28         -0.2690     2.6780    -0.3400 nc         1 EGJ      -0.651000
     29 N29         -2.4290     0.7590     0.5660 nb         1 EGJ      -0.716000
     30 N30          1.8150    -1.6400     0.9170 n3         1 EGJ      -0.726600
     31 N31         -2.4890     3.0190     0.2370 nu         1 EGJ      -0.913800
     32 F34          4.9110    -2.0350    -0.2230 f          1 EGJ      -0.148000
     33 S35         -0.6700     4.9320     0.9410 ss         1 EGJ      -0.169400
     34 Cl1          6.7910    -0.4370    -1.9310 cl         1 EGJ      -0.190000
     35 H43          6.1640     2.2470    -1.1190 ha         1 EGJ       0.121000
     36 H42          3.0780     1.6050     1.8270 ha         1 EGJ       0.120000
     37 H37         -8.0340    -0.9960    -1.1960 ha         1 EGJ       0.094000
     38 H41         -4.4510    -2.8320     0.3110 ha         1 EGJ       0.155000
     39 H40         -6.9430     1.2370    -1.1280 ha         1 EGJ       0.097000
     40 H39          4.5340     3.1510     0.5360 ha         1 EGJ       0.112000
     41 H38         -6.7740    -3.0180    -0.4720 ha         1 EGJ       0.109000
     42 H44         -4.9680     2.6240    -0.6290 ha         1 EGJ       0.105000
     43 H47         -0.6510    -0.3300    -1.0810 hc         1 EGJ       0.064700
     44 H48          0.4740    -1.6090    -1.4440 hc         1 EGJ       0.064700
     45 H50          0.3840    -3.8580    -0.1060 hc         1 EGJ       0.052200
     46 H49         -0.6930    -4.0080     1.2550 hc         1 EGJ       0.052200
     47 H51          1.5220     0.1900    -0.1440 h1         1 EGJ       0.020700
     48 H52          0.4050    -0.0480     1.2020 h1         1 EGJ       0.020700
     49 H53          1.7280    -3.5710     1.7560 h1         1 EGJ       0.032700
     50 H54         -0.2130    -3.0200     3.4000 hc         1 EGJ       0.026367
     51 H55          1.4060    -2.4270     3.7550 hc         1 EGJ       0.026367
     52 H56          0.2030    -1.3180     3.1190 hc         1 EGJ       0.026367
     53 H58          3.5780    -1.9800     2.0530 h1         1 EGJ       0.030700
     54 H57          2.6190    -0.6040     2.5940 h1         1 EGJ       0.030700
     55 H60         -1.5540    -1.1780     1.8880 hc         1 EGJ       0.042700
     56 H59         -2.6890    -2.3900     1.4800 hc         1 EGJ       0.042700
     57 H61         -3.1180     3.8060     0.3240 hn         1 EGJ       0.500000
     58 O32         -2.3910    -3.9900    -0.8490 o          1 EGJ      -0.726500
     59 H45          1.8080     2.8160    -0.6820 h4         1 EGJ       0.042100
     60 O33         -2.2710    -2.2360    -2.0440 o          1 EGJ      -0.726500
     61 H46          1.7930     5.1640     0.5980 h4         1 EGJ       0.149000
@<TRIPOS>BOND
     1     1     6 ar  
     2     1    15 ar  
     3     1    35 1   
     4     2     6 ar  
     5     2    13 ar  
     6     2    36 1   
     7     3     5 ar  
     8     3     7 ar  
     9     3    37 1   
    10     4     7 ar  
    11     4    12 ar  
    12     4    38 1   
    13     5    11 ar  
    14     5    39 1   
    15     6    40 1   
    16     7    41 1   
    17     8    11 ar  
    18     8    17 ar  
    19     8    42 1   
    20     9    10 2   
    21     9    28 1   
    22     9    59 1   
    23    10    33 1   
    24    10    61 1   
    25    11    12 ar  
    26    12    16 ar  
    27    13    14 ar  
    28    13    26 1   
    29    14    15 ar  
    30    14    32 1   
    31    15    34 1   
    32    16    27 1   
    33    16    29 ar  
    34    17    29 ar  
    35    17    31 1   
    36    18    28 2   
    37    18    31 1   
    38    18    33 1   
    39    19    24 1   
    40    19    58 1   
    41    19    60 1   
    42    20    22 1   
    43    20    24 1   
    44    20    43 1   
    45    20    44 1   
    46    21    23 1   
    47    21    24 1   
    48    21    45 1   
    49    21    46 1   
    50    22    30 1   
    51    22    47 1   
    52    22    48 1   
    53    23    25 1   
    54    23    30 1   
    55    23    49 1   
    56    24    27 1   
    57    25    50 1   
    58    25    51 1   
    59    25    52 1   
    60    26    30 1   
    61    26    53 1   
    62    26    54 1   
    63    27    55 1   
    64    27    56 1   
    65    31    57 1   
@<TRIPOS>SUBSTRUCTURE
     1 EGJ         1 TEMP              0 ****  ****    0 ROOT
