@<TRIPOS>MOLECULE
EGL
   10     9     1     0     0
SMALL
No Charge or Current Charge


@<TRIPOS>ATOM
      1 C1          -0.6030    -0.2490     0.7170 c3         1 EGL       0.162100
      2 O1           0.5100     0.2410     1.4860 oh         1 EGL      -0.648000
      3 C2          -0.5860     0.3060    -0.7360 c3         1 EGL       0.162100
      4 O2           0.5540    -0.1740    -1.4740 oh         1 EGL      -0.648000
      5 H11         -0.5900    -1.3470     0.6800 h1         1 EGL       0.023200
      6 H12         -1.5470     0.0510     1.1930 h1         1 EGL       0.023200
      7 HO1          0.4600    -0.1910     2.3670 ho         1 EGL       0.440000
      8 H21         -1.5120    -0.0020    -1.2380 h1         1 EGL       0.023200
      9 H22         -0.5830     1.4040    -0.7000 h1         1 EGL       0.023200
     10 HO2          0.5250     0.2590    -2.3560 ho         1 EGL       0.440000
@<TRIPOS>BOND
     1     1     2 1   
     2     1     3 1   
     3     1     5 1   
     4     1     6 1   
     5     2     7 1   
     6     3     4 1   
     7     3     8 1   
     8     3     9 1   
     9     4    10 1   
@<TRIPOS>SUBSTRUCTURE
     1 EGL         1 TEMP              0 ****  ****    0 ROOT
