@<TRIPOS>MOLECULE
EGL
   10     9     1     0     0
SMALL
abcg2


@<TRIPOS>ATOM
      1 C1          -0.5980    -0.2550     0.6890 c3         1 EGL       0.162100
      2 O1           0.5040     0.2360     1.4180 oh         1 EGL      -0.648000
      3 C2          -0.5790     0.3170    -0.7060 c3         1 EGL       0.162100
      4 O2           0.5540    -0.1570    -1.3990 oh         1 EGL      -0.648000
      5 H11         -0.5920    -1.3520     0.6300 h1         1 EGL       0.023200
      6 H12         -1.5530     0.0330     1.1470 h1         1 EGL       0.023200
      7 HO1          0.4720    -0.1470     2.2990 ho         1 EGL       0.440000
      8 H21         -1.5130     0.0160    -1.1970 h1         1 EGL       0.023200
      9 H22         -0.5900     1.4140    -0.6480 h1         1 EGL       0.023200
     10 HO2          0.5240     0.1940    -2.2930 ho         1 EGL       0.440000
@<TRIPOS>BOND
     1     1     2 1   
     2     1     3 1   
     3     1     5 1   
     4     1     6 1   
     5     2     7 1   
     6     3     4 1   
     7     3     8 1   
     8     3     9 1   
     9     4    10 1   
@<TRIPOS>SUBSTRUCTURE
     1 EGL         1 TEMP              0 ****  ****    0 ROOT
