@<TRIPOS>MOLECULE
EGM
   20    20     1     0     0
SMALL
bcc


@<TRIPOS>ATOM
      1 O2           3.0840    -1.1780     0.1700 o          1 EGM      -0.828800
      2 C7           2.5410    -0.0580     0.1020 c          1 EGM       0.922200
      3 O1           3.1110     1.0490     0.1510 o          1 EGM      -0.828800
      4 C5           1.0270    -0.0410    -0.0590 ca         1 EGM      -0.131600
      5 C6           0.2980    -1.2260    -0.1130 ca         1 EGM      -0.107000
      6 C1          -1.0820    -1.2100    -0.2590 ca         1 EGM      -0.157000
      7 C2          -1.7800    -0.0080    -0.3550 ca         1 EGM      -0.119300
      8 C8          -3.2800     0.0100    -0.4590 c3         1 EGM      -0.018100
      9 C9          -3.9450     0.0430     0.9170 c3         1 EGM      -0.083100
     10 C3          -1.0500     1.1770    -0.3040 ca         1 EGM      -0.157000
     11 C4           0.3300     1.1610    -0.1570 ca         1 EGM      -0.107000
     12 H2           0.8190    -2.1720    -0.0420 ha         1 EGM       0.143000
     13 H3          -1.6270    -2.1470    -0.3030 ha         1 EGM       0.100000
     14 H4          -3.6010     0.8810    -1.0350 hc         1 EGM       0.028700
     15 H5          -3.6240    -0.8710    -1.0060 hc         1 EGM       0.028700
     16 H6          -3.6710    -0.8330     1.5070 hc         1 EGM       0.024700
     17 H7          -3.6420     0.9290     1.4760 hc         1 EGM       0.024700
     18 H8          -5.0320     0.0580     0.8260 hc         1 EGM       0.024700
     19 H9          -1.5690     2.1260    -0.3830 ha         1 EGM       0.100000
     20 H10          0.8760     2.0950    -0.1200 ha         1 EGM       0.143000
@<TRIPOS>BOND
     1     1     2 1   
     2     2     3 1   
     3     2     4 1   
     4     4     5 ar  
     5     4    11 ar  
     6     5     6 ar  
     7     5    12 1   
     8     6     7 ar  
     9     6    13 1   
    10     7     8 1   
    11     7    10 ar  
    12     8     9 1   
    13     8    14 1   
    14     8    15 1   
    15     9    16 1   
    16     9    17 1   
    17     9    18 1   
    18    10    11 ar  
    19    10    19 1   
    20    11    20 1   
@<TRIPOS>SUBSTRUCTURE
     1 EGM         1 TEMP              0 ****  ****    0 ROOT
