@<TRIPOS>MOLECULE
EGM
   20    20     1     0     0
SMALL
No Charge or Current Charge


@<TRIPOS>ATOM
      1 O2           3.1430    -1.1390     0.1440 o          1 EGM      -0.723500
      2 C7           2.5740    -0.0590     0.0730 c          1 EGM       0.711600
      3 O1           3.1720     1.0070     0.1070 o          1 EGM      -0.723500
      4 C5           1.0580    -0.0410    -0.0650 ca         1 EGM      -0.131600
      5 C6           0.3190    -1.2470    -0.1090 ca         1 EGM      -0.089000
      6 C1          -1.0810    -1.2280    -0.2360 ca         1 EGM      -0.139000
      7 C2          -1.7730    -0.0080    -0.3230 ca         1 EGM      -0.119300
      8 C8          -3.2910     0.0100    -0.4570 c3         1 EGM      -0.018100
      9 C9          -3.9960     0.0440     0.9120 c3         1 EGM      -0.083100
     10 C3          -1.0480     1.1960    -0.2780 ca         1 EGM      -0.139000
     11 C4           0.3520     1.1820    -0.1520 ca         1 EGM      -0.089000
     12 H2           0.8280    -2.2060    -0.0440 ha         1 EGM       0.125000
     13 H3          -1.6280    -2.1680    -0.2650 ha         1 EGM       0.082000
     14 H4          -3.6100     0.8820    -1.0420 hc         1 EGM       0.028700
     15 H5          -3.6330    -0.8720    -1.0110 hc         1 EGM       0.028700
     16 H6          -3.7300    -0.8400     1.5050 hc         1 EGM       0.024700
     17 H7          -3.7060     0.9390     1.4740 hc         1 EGM       0.024700
     18 H8          -5.0840     0.0560     0.7810 hc         1 EGM       0.024700
     19 H9          -1.5700     2.1480    -0.3410 ha         1 EGM       0.082000
     20 H10          0.8870     2.1280    -0.1200 ha         1 EGM       0.125000
@<TRIPOS>BOND
     1     1     2 1   
     2     2     3 1   
     3     2     4 1   
     4     4     5 ar  
     5     4    11 ar  
     6     5     6 ar  
     7     5    12 1   
     8     6     7 ar  
     9     6    13 1   
    10     7     8 1   
    11     7    10 ar  
    12     8     9 1   
    13     8    14 1   
    14     8    15 1   
    15     9    16 1   
    16     9    17 1   
    17     9    18 1   
    18    10    11 ar  
    19    10    19 1   
    20    11    20 1   
@<TRIPOS>SUBSTRUCTURE
     1 EGM         1 TEMP              0 ****  ****    0 ROOT
