@<TRIPOS>MOLECULE
EGN
   61    64     1     0     0
SMALL
bcc


@<TRIPOS>ATOM
      1 CAN         -6.3180     1.7640     0.2470 c6         1 EGN      -0.098900
      2 CAJ         -7.5150     2.3790    -0.4760 c6         1 EGN      -0.071900
      3 CAI         -8.6980     1.4260    -0.5270 c6         1 EGN      -0.084400
      4 CAK         -8.2840     0.1120    -1.1690 c6         1 EGN      -0.071900
      5 CAO         -7.0950    -0.5250    -0.4540 c6         1 EGN      -0.098900
      6 CAZ         -5.9130     0.4380    -0.3920 c6         1 EGN       0.146500
      7 NBB         -4.7540    -0.1850     0.3710 nx         1 EGN      -0.697400
      8 CAS         -3.5560     0.7090     0.4040 c6         1 EGN       0.102800
      9 CAQ         -2.4020     0.0790     1.1600 c6         1 EGN       0.076000
     10 CAR         -4.3610    -1.5260    -0.1650 c6         1 EGN       0.102800
     11 CAP         -3.2020    -2.1180     0.6090 c6         1 EGN       0.076000
     12 NBA         -2.0710    -1.2190     0.6200 n          1 EGN      -0.494800
     13 CAU         -0.8430    -1.6370     0.2540 c          1 EGN       0.696100
     14 OAB         -0.6170    -2.7710    -0.1330 o          1 EGN      -0.532100
     15 CAM          0.2770    -0.6160     0.3330 c3         1 EGN      -0.135300
     16 SAT          1.7930    -1.4940    -0.1010 ss         1 EGN      -0.116700
     17 CAV          3.0010    -0.2340     0.0320 cc         1 EGN       0.121400
     18 CAX          4.3750    -0.6430    -0.1690 ca         1 EGN      -0.128800
     19 CAF          4.7320    -1.9690    -0.4480 ca         1 EGN      -0.071000
     20 CAD          6.0440    -2.3380    -0.6350 ca         1 EGN      -0.155000
     21 CAE          7.0370    -1.3670    -0.5450 ca         1 EGN      -0.067000
     22 CAG          6.7190    -0.0540    -0.2700 ca         1 EGN      -0.182000
     23 CAY          5.3850     0.3370    -0.0730 ca         1 EGN       0.117600
     24 NBC          5.0620     1.6510     0.2100 n          1 EGN      -0.341000
     25 CAL          6.1080     2.6720     0.2800 c3         1 EGN       0.085000
     26 CAA          6.5080     3.1950    -1.0890 c3         1 EGN      -0.112100
     27 CAW          3.7580     2.0760     0.3650 c          1 EGN       0.711700
     28 OAC          3.4900     3.2570     0.5590 o          1 EGN      -0.633500
     29 CAH          2.7290     1.0640     0.2910 cd         1 EGN      -0.280200
     30 H1          -5.5000     2.4840     0.2220 hc         1 EGN       0.059200
     31 H2          -6.5720     1.5960     1.3000 hc         1 EGN       0.059200
     32 H3          -7.7850     3.3090     0.0270 hc         1 EGN       0.066700
     33 H4          -7.2180     2.6520    -1.4940 hc         1 EGN       0.066700
     34 H5          -9.0680     1.2420     0.4870 hc         1 EGN       0.066200
     35 H6          -9.5220     1.8750    -1.0860 hc         1 EGN       0.066200
     36 H7          -9.1110    -0.6000    -1.1690 hc         1 EGN       0.066700
     37 H8          -8.0200     0.2820    -2.2170 hc         1 EGN       0.066700
     38 H9          -7.3860    -0.8120     0.5630 hc         1 EGN       0.059200
     39 H10         -6.8310    -1.4380    -0.9860 hc         1 EGN       0.059200
     40 H11         -5.5220     0.6120    -1.3990 hx         1 EGN       0.098700
     41 H12         -5.0700    -0.3200     1.3370 hn         1 EGN       0.436800
     42 H13         -3.2890     0.9230    -0.6300 hx         1 EGN       0.105450
     43 H14         -3.8270     1.6340     0.9010 hx         1 EGN       0.105450
     44 H15         -1.5670     0.7700     1.0950 h1         1 EGN       0.092200
     45 H16         -2.6600    -0.0160     2.2190 h1         1 EGN       0.092200
     46 H17         -5.2100    -2.1960    -0.0800 hx         1 EGN       0.105450
     47 H18         -4.1170    -1.3910    -1.2180 hx         1 EGN       0.105450
     48 H19         -3.5100    -2.3380     1.6360 h1         1 EGN       0.092200
     49 H20         -2.9330    -3.0610     0.1400 h1         1 EGN       0.092200
     50 H21          0.0930     0.2010    -0.3680 h1         1 EGN       0.089700
     51 H22          0.3660    -0.1980     1.3370 h1         1 EGN       0.089700
     52 H23          3.9660    -2.7310    -0.5160 ha         1 EGN       0.141000
     53 H24          6.2960    -3.3670    -0.8500 ha         1 EGN       0.146000
     54 H25          8.0750    -1.6340    -0.6920 ha         1 EGN       0.142000
     55 H26          7.5230     0.6620    -0.2150 ha         1 EGN       0.147000
     56 H27          5.7290     3.4850     0.8920 h1         1 EGN       0.069700
     57 H28          6.9630     2.2640     0.8150 h1         1 EGN       0.069700
     58 H29          6.9120     2.4090    -1.7280 hc         1 EGN       0.048367
     59 H30          5.6550     3.6400    -1.6000 hc         1 EGN       0.048367
     60 H31          7.2740     3.9620    -0.9800 hc         1 EGN       0.048367
     61 H32          1.7250     1.4300     0.4450 ha         1 EGN       0.137000
@<TRIPOS>BOND
     1     1     2 1   
     2     1     6 1   
     3     1    30 1   
     4     1    31 1   
     5     2     3 1   
     6     2    32 1   
     7     2    33 1   
     8     3     4 1   
     9     3    34 1   
    10     3    35 1   
    11     4     5 1   
    12     4    36 1   
    13     4    37 1   
    14     5     6 1   
    15     5    38 1   
    16     5    39 1   
    17     6     7 1   
    18     6    40 1   
    19     7     8 1   
    20     7    10 1   
    21     7    41 1   
    22     8     9 1   
    23     8    42 1   
    24     8    43 1   
    25     9    12 1   
    26     9    44 1   
    27     9    45 1   
    28    10    11 1   
    29    10    46 1   
    30    10    47 1   
    31    11    12 1   
    32    11    48 1   
    33    11    49 1   
    34    12    13 1   
    35    13    14 2   
    36    13    15 1   
    37    15    16 1   
    38    15    50 1   
    39    15    51 1   
    40    16    17 1   
    41    17    18 1   
    42    17    29 2   
    43    18    19 ar  
    44    18    23 ar  
    45    19    20 ar  
    46    19    52 1   
    47    20    21 ar  
    48    20    53 1   
    49    21    22 ar  
    50    21    54 1   
    51    22    23 ar  
    52    22    55 1   
    53    23    24 1   
    54    24    25 1   
    55    24    27 1   
    56    25    26 1   
    57    25    56 1   
    58    25    57 1   
    59    26    58 1   
    60    26    59 1   
    61    26    60 1   
    62    27    28 2   
    63    27    29 1   
    64    29    61 1   
@<TRIPOS>SUBSTRUCTURE
     1 EGN         1 TEMP              0 ****  ****    0 ROOT
