@<TRIPOS>MOLECULE
EGN
   61    64     1     0     0
SMALL
No Charge or Current Charge


@<TRIPOS>ATOM
      1 CAN         -6.1950     1.8740    -0.0970 c6         1 EGN      -0.098900
      2 CAJ         -7.2830     2.4550    -1.0330 c6         1 EGN      -0.071900
      3 CAI         -8.5710     1.6020    -0.9890 c6         1 EGN      -0.084400
      4 CAK         -8.2610     0.1280    -1.3360 c6         1 EGN      -0.071900
      5 CAO         -7.1720    -0.4500    -0.3990 c6         1 EGN      -0.098900
      6 CAZ         -5.8630     0.3920    -0.4360 c6         1 EGN       0.118300
      7 NBB         -4.8110    -0.1770     0.5370 nx         1 EGN      -0.668000
      8 CAS         -3.5060     0.6590     0.5490 c6         1 EGN       0.074600
      9 CAQ         -2.4440     0.0560     1.4990 c6         1 EGN       0.076000
     10 CAR         -4.4810    -1.6630     0.2440 c6         1 EGN       0.074600
     11 CAP         -3.3990    -2.2110     1.2040 c6         1 EGN       0.076000
     12 NBA         -2.1740    -1.3680     1.1520 n          1 EGN      -0.427800
     13 CAU         -0.9670    -1.8320     0.5720 c          1 EGN       0.629100
     14 OAB         -0.8940    -2.9660     0.1160 o          1 EGN      -0.532100
     15 CAM          0.2500    -0.8880     0.5700 c3         1 EGN      -0.087400
     16 SAT          1.8160    -1.6900    -0.0380 ss         1 EGN      -0.164600
     17 CAV          3.0970    -0.4570     0.0370 cc         1 EGN       0.121400
     18 CAX          4.4790    -0.7020    -0.3770 ca         1 EGN      -0.128800
     19 CAF          4.8460    -1.9600    -0.9100 ca         1 EGN      -0.053000
     20 CAD          6.1560    -2.1970    -1.3470 ca         1 EGN      -0.137000
     21 CAE          7.1120    -1.1780    -1.2720 ca         1 EGN      -0.049000
     22 CAG          6.7600     0.0720    -0.7430 ca         1 EGN      -0.164000
     23 CAY          5.4510     0.3180    -0.2580 ca         1 EGN       0.117600
     24 NBC          5.0590     1.6160     0.2460 n          1 EGN      -0.274000
     25 CAL          6.0850     2.6650     0.4960 c3         1 EGN       0.085000
     26 CAA          6.3810     3.5290    -0.7460 c3         1 EGN      -0.112100
     27 CAW          3.7260     1.9060     0.6150 c          1 EGN       0.569200
     28 OAC          3.3710     3.0030     1.0240 o          1 EGN      -0.558000
     29 CAH          2.7640     0.8020     0.4890 cd         1 EGN      -0.330200
     30 H1          -5.2990     2.5010    -0.1890 hc         1 EGN       0.059200
     31 H2          -6.5260     1.9520     0.9480 hc         1 EGN       0.059200
     32 H3          -7.5120     3.4900    -0.7430 hc         1 EGN       0.066700
     33 H4          -6.9010     2.4990    -2.0630 hc         1 EGN       0.066700
     34 H5          -9.0250     1.6630     0.0100 hc         1 EGN       0.066200
     35 H6          -9.3120     2.0050    -1.6940 hc         1 EGN       0.066200
     36 H7          -9.1770    -0.4730    -1.2590 hc         1 EGN       0.066700
     37 H8          -7.9280     0.0550    -2.3810 hc         1 EGN       0.066700
     38 H9          -7.5550    -0.4980     0.6290 hc         1 EGN       0.059200
     39 H10         -6.9740    -1.4840    -0.7080 hc         1 EGN       0.059200
     40 H11         -5.4250     0.3380    -1.4390 hx         1 EGN       0.098700
     41 H12         -5.2220    -0.1310     1.4970 hn         1 EGN       0.492000
     42 H13         -3.1260     0.6900    -0.4780 hx         1 EGN       0.105450
     43 H14         -3.7490     1.6820     0.8500 hx         1 EGN       0.105450
     44 H15         -1.5380     0.6750     1.4630 h1         1 EGN       0.092200
     45 H16         -2.8170     0.1080     2.5320 h1         1 EGN       0.092200
     46 H17         -5.4000    -2.2510     0.3330 hx         1 EGN       0.105450
     47 H18         -4.1370    -1.7270    -0.7930 hx         1 EGN       0.105450
     48 H19         -3.7920    -2.2160     2.2300 h1         1 EGN       0.092200
     49 H20         -3.1770    -3.2550     0.9430 h1         1 EGN       0.092200
     50 H21          0.0050    -0.0360    -0.0740 h1         1 EGN       0.089700
     51 H22          0.4000    -0.5420     1.5990 h1         1 EGN       0.089700
     52 H23          4.1200    -2.7630    -1.0000 ha         1 EGN       0.123000
     53 H24          6.4260    -3.1680    -1.7580 ha         1 EGN       0.128000
     54 H25          8.1260    -1.3550    -1.6270 ha         1 EGN       0.124000
     55 H26          7.5290     0.8370    -0.7180 ha         1 EGN       0.129000
     56 H27          5.7590     3.3230     1.3120 h1         1 EGN       0.069700
     57 H28          7.0110     2.1970     0.8520 h1         1 EGN       0.069700
     58 H29          6.7320     2.9140    -1.5830 hc         1 EGN       0.048367
     59 H30          5.4770     4.0600    -1.0670 hc         1 EGN       0.048367
     60 H31          7.1530     4.2730    -0.5180 hc         1 EGN       0.048367
     61 H32          1.7730     1.0910     0.8000 ha         1 EGN       0.187000
@<TRIPOS>BOND
     1     1     2 1   
     2     1     6 1   
     3     1    30 1   
     4     1    31 1   
     5     2     3 1   
     6     2    32 1   
     7     2    33 1   
     8     3     4 1   
     9     3    34 1   
    10     3    35 1   
    11     4     5 1   
    12     4    36 1   
    13     4    37 1   
    14     5     6 1   
    15     5    38 1   
    16     5    39 1   
    17     6     7 1   
    18     6    40 1   
    19     7     8 1   
    20     7    10 1   
    21     7    41 1   
    22     8     9 1   
    23     8    42 1   
    24     8    43 1   
    25     9    12 1   
    26     9    44 1   
    27     9    45 1   
    28    10    11 1   
    29    10    46 1   
    30    10    47 1   
    31    11    12 1   
    32    11    48 1   
    33    11    49 1   
    34    12    13 1   
    35    13    14 2   
    36    13    15 1   
    37    15    16 1   
    38    15    50 1   
    39    15    51 1   
    40    16    17 1   
    41    17    18 1   
    42    17    29 2   
    43    18    19 ar  
    44    18    23 ar  
    45    19    20 ar  
    46    19    52 1   
    47    20    21 ar  
    48    20    53 1   
    49    21    22 ar  
    50    21    54 1   
    51    22    23 ar  
    52    22    55 1   
    53    23    24 1   
    54    24    25 1   
    55    24    27 1   
    56    25    26 1   
    57    25    56 1   
    58    25    57 1   
    59    26    58 1   
    60    26    59 1   
    61    26    60 1   
    62    27    28 2   
    63    27    29 1   
    64    29    61 1   
@<TRIPOS>SUBSTRUCTURE
     1 EGN         1 TEMP              0 ****  ****    0 ROOT
