@<TRIPOS>MOLECULE
EGO
   48    51     1     0     0
SMALL
No Charge or Current Charge


@<TRIPOS>ATOM
      1 C5          -7.1160    13.7620    27.0290 ca         1 EGO      -0.121000
      2 C4          -8.5140    13.6300    27.0230 ca         1 EGO      -0.128500
      3 C6          -6.4650    14.2730    28.1640 ca         1 EGO      -0.128500
      4 C23        -10.0060    16.6420    37.9750 ca         1 EGO      -0.110000
      5 C3          -9.2630    14.0100    28.1510 ca         1 EGO      -0.086000
      6 C7          -7.2120    14.6540    29.2930 ca         1 EGO      -0.086000
      7 C1         -10.4320    13.7140    34.8860 ca         1 EGO      -0.128000
      8 C2          -9.7750    13.5760    33.6540 ca         1 EGO      -0.142000
      9 C24         -8.9680    17.5770    37.8090 ca         1 EGO      -0.090000
     10 C27        -10.5810    16.8590    35.6320 ca         1 EGO      -0.117000
     11 C16        -12.4440    14.4350    33.7210 ca         1 EGO      -0.064000
     12 C18        -13.4600    13.8610    37.8780 cc         1 EGO       0.218900
     13 C28        -10.8260    16.2580    36.8890 ca         1 EGO       0.027000
     14 C15        -11.7930    14.2900    32.4760 ca         1 EGO      -0.138600
     15 C8          -8.6160    14.5260    29.2920 ca         1 EGO      -0.076300
     16 C30        -12.5970    14.9230    38.2210 cc         1 EGO      -0.191300
     17 C17        -11.7660    14.1670    34.9260 ca         1 EGO      -0.049200
     18 C11        -10.4400    13.8780    32.4530 ca         1 EGO       0.127100
     19 C26         -9.5460    17.7920    35.4650 ca         1 EGO       0.180000
     20 C25         -8.7340    18.1540    36.5530 ca         1 EGO       0.063000
     21 C29        -11.9200    15.2630    37.0720 cd         1 EGO      -0.113000
     22 C31        -12.5760    15.5220    39.6050 c3         1 EGO      -0.002800
     23 C9          -9.4300    14.9390    30.5100 c3         1 EGO       0.208900
     24 N19        -13.3700    13.4490    36.6340 nd         1 EGO      -0.479800
     25 N20        -12.4260    14.3250    36.1450 na         1 EGO       0.263000
     26 O12        -12.6320    13.6760    30.3700 o          1 EGO      -0.701500
     27 O13        -13.1740    15.6160    31.1340 o          1 EGO      -0.701500
     28 O10         -9.7280    13.7640    31.2830 os         1 EGO      -0.350100
     29 F21         -9.3450    18.3470    34.2480 f          1 EGO      -0.160000
     30 Cl1         -7.4280    19.3240    36.3620 cl         1 EGO      -0.187000
     31 H1          -6.5370    13.4680    26.1560 ha         1 EGO       0.094000
     32 H2          -9.0190    13.2330    26.1450 ha         1 EGO       0.101000
     33 H3          -5.3820    14.3740    28.1710 ha         1 EGO       0.101000
     34 H5         -10.3460    13.9020    28.1420 ha         1 EGO       0.136000
     35 H6          -6.7000    15.0470    30.1700 ha         1 EGO       0.136000
     36 H7          -9.9040    13.4860    35.8090 ha         1 EGO       0.106000
     37 H8          -8.7390    13.2460    33.6280 ha         1 EGO       0.110000
     38 H9          -8.3410    17.8480    38.6550 ha         1 EGO       0.123000
     39 H10        -11.2080    16.6390    34.7760 ha         1 EGO       0.161000
     40 H11        -13.4830    14.7570    33.7510 ha         1 EGO       0.141000
     41 H12        -14.1560    13.3560    38.5340 h4         1 EGO       0.028100
     42 H13        -13.5260    15.3420    40.1230 hc         1 EGO       0.031700
     43 H14        -11.7780    15.0810    40.2130 hc         1 EGO       0.031700
     44 H15        -12.4260    16.6080    39.5650 hc         1 EGO       0.031700
     45 H16         -8.8570    15.6570    31.1120 h1         1 EGO       0.043200
     46 H17        -10.3460    15.4420    30.1770 h1         1 EGO       0.043200
     47 H4         -10.1330    16.1880    38.9510 ha         1 EGO       0.125000
     48 C14        -12.5700    14.5560    31.2160 c          1 EGO       0.717600
@<TRIPOS>BOND
     1     1     2 ar  
     2     1     3 ar  
     3     1    31 1   
     4     2     5 ar  
     5     2    32 1   
     6     3     6 ar  
     7     3    33 1   
     8     4     9 ar  
     9     4    13 ar  
    10     4    47 1   
    11     5    15 ar  
    12     5    34 1   
    13     6    15 ar  
    14     6    35 1   
    15     7     8 ar  
    16     7    17 ar  
    17     7    36 1   
    18     8    18 ar  
    19     8    37 1   
    20     9    20 ar  
    21     9    38 1   
    22    10    13 ar  
    23    10    19 ar  
    24    10    39 1   
    25    11    14 ar  
    26    11    17 ar  
    27    11    40 1   
    28    12    16 1   
    29    12    24 2   
    30    12    41 1   
    31    13    21 1   
    32    14    18 ar  
    33    14    48 1   
    34    15    23 1   
    35    16    21 2   
    36    16    22 1   
    37    17    25 1   
    38    18    28 1   
    39    19    20 ar  
    40    19    29 1   
    41    20    30 1   
    42    21    25 1   
    43    22    42 1   
    44    22    43 1   
    45    22    44 1   
    46    23    28 1   
    47    23    45 1   
    48    23    46 1   
    49    24    25 1   
    50    26    48 1   
    51    27    48 1   
@<TRIPOS>SUBSTRUCTURE
     1 EGO         1 TEMP              0 ****  ****    0 ROOT
