@<TRIPOS>MOLECULE
EGO
   48    51     1     0     0
SMALL
bcc


@<TRIPOS>ATOM
      1 C5          -7.6390    13.8250    26.7290 ca         1 EGO      -0.139000
      2 C4          -8.8680    13.3330    27.1560 ca         1 EGO      -0.146500
      3 C6          -6.8960    14.6400    27.5690 ca         1 EGO      -0.146500
      4 C23         -9.9630    16.3500    38.1880 ca         1 EGO      -0.128000
      5 C3          -9.3520    13.6570    28.4140 ca         1 EGO      -0.104000
      6 C7          -7.3800    14.9600    28.8330 ca         1 EGO      -0.104000
      7 C1         -10.1230    13.9550    34.9140 ca         1 EGO      -0.146000
      8 C2          -9.4290    13.7960    33.7250 ca         1 EGO      -0.160000
      9 C24         -8.8990    17.2380    38.1980 ca         1 EGO      -0.108000
     10 C27        -10.5100    17.0090    35.9420 ca         1 EGO      -0.135000
     11 C16        -12.1480    14.2690    33.6510 ca         1 EGO      -0.082000
     12 C18        -13.7270    14.1420    37.4930 cc         1 EGO       0.284200
     13 C28        -10.7750    16.2220    37.0620 ca         1 EGO       0.027000
     14 C15        -11.4740    14.0500    32.4550 ca         1 EGO      -0.138600
     15 C8          -8.6110    14.4770    29.2640 ca         1 EGO      -0.076300
     16 C30        -12.8760    15.1140    38.0460 cc         1 EGO      -0.256600
     17 C17        -11.4850    14.2110    34.8680 ca         1 EGO      -0.049200
     18 C11        -10.0940    13.8320    32.5060 ca         1 EGO       0.127100
     19 C26         -9.4430    17.8800    35.9610 ca         1 EGO       0.144900
     20 C25         -8.6290    18.0050    37.0770 ca         1 EGO      -0.028600
     21 C29        -11.9000    15.2860    37.0830 cd         1 EGO      -0.062300
     22 C31        -13.0250    15.8210    39.3500 c3         1 EGO      -0.002800
     23 C9          -9.1480    14.8480    30.6140 c3         1 EGO       0.185700
     24 N19        -13.3160    13.7400    36.3080 nd         1 EGO      -0.479800
     25 N20        -12.2080    14.4360    36.0640 na         1 EGO       0.212300
     26 O12        -12.1860    13.0050    30.4700 o          1 EGO      -0.806800
     27 O13        -12.9590    15.0540    30.9340 o          1 EGO      -0.806800
     28 O10         -9.3600    13.6590    31.3700 os         1 EGO      -0.326900
     29 F21         -9.1860    18.6260    34.8850 f          1 EGO      -0.124900
     30 CL1         -7.3060    19.1050    37.0460 cl         1 EGO      -0.095400
     31 H1          -7.2660    13.5740    25.7450 ha         1 EGO       0.112000
     32 H2          -9.4520    12.6980    26.5030 ha         1 EGO       0.119000
     33 H3          -5.9380    15.0270    27.2460 ha         1 EGO       0.119000
     34 H5         -10.3140    13.2780    28.7380 ha         1 EGO       0.154000
     35 H6          -6.7940    15.5930    29.4880 ha         1 EGO       0.154000
     36 H7          -9.6010    13.8930    35.8600 ha         1 EGO       0.124000
     37 H8          -8.3600    13.6240    33.7430 ha         1 EGO       0.128000
     38 H9          -8.2700    17.3250    39.0740 ha         1 EGO       0.141000
     39 H10        -11.1310    16.9590    35.0560 ha         1 EGO       0.179000
     40 H11        -13.2100    14.4810    33.6340 ha         1 EGO       0.159000
     41 H12        -14.6260    13.7290    37.9270 h4         1 EGO       0.028100
     42 H13        -14.0660    15.8150    39.6740 hc         1 EGO       0.031700
     43 H14        -12.4370    15.3490    40.1400 hc         1 EGO       0.031700
     44 H15        -12.7040    16.8600    39.2830 hc         1 EGO       0.031700
     45 H16         -8.4430    15.5060    31.1380 h1         1 EGO       0.043200
     46 H17        -10.0850    15.4030    30.5050 h1         1 EGO       0.043200
     47 H4         -10.1480    15.7390    39.0610 ha         1 EGO       0.143000
     48 C14        -12.2760    14.0390    31.1550 c          1 EGO       0.928200
@<TRIPOS>BOND
     1     1     2 ar  
     2     1     3 ar  
     3     1    31 1   
     4     2     5 ar  
     5     2    32 1   
     6     3     6 ar  
     7     3    33 1   
     8     4     9 ar  
     9     4    13 ar  
    10     4    47 1   
    11     5    15 ar  
    12     5    34 1   
    13     6    15 ar  
    14     6    35 1   
    15     7     8 ar  
    16     7    17 ar  
    17     7    36 1   
    18     8    18 ar  
    19     8    37 1   
    20     9    20 ar  
    21     9    38 1   
    22    10    13 ar  
    23    10    19 ar  
    24    10    39 1   
    25    11    14 ar  
    26    11    17 ar  
    27    11    40 1   
    28    12    16 1   
    29    12    24 2   
    30    12    41 1   
    31    13    21 1   
    32    14    18 ar  
    33    14    48 1   
    34    15    23 1   
    35    16    21 2   
    36    16    22 1   
    37    17    25 1   
    38    18    28 1   
    39    19    20 ar  
    40    19    29 1   
    41    20    30 1   
    42    21    25 1   
    43    22    42 1   
    44    22    43 1   
    45    22    44 1   
    46    23    28 1   
    47    23    45 1   
    48    23    46 1   
    49    24    25 1   
    50    26    48 1   
    51    27    48 1   
@<TRIPOS>SUBSTRUCTURE
     1 EGO         1 TEMP              0 ****  ****    0 ROOT
