@<TRIPOS>MOLECULE
EGP
   80    85     1     0     0
SMALL
abcg2


@<TRIPOS>ATOM
      1 N           -3.4510     1.3920     0.0620 na         1 EGP      -0.079700
      2 CA          -3.2220     2.7480     0.4510 c3         1 EGP      -0.001400
      3 C           -2.4940     3.5280    -0.6470 c          1 EGP       0.579100
      4 O           -2.2190     2.9830    -1.7030 o          1 EGP      -0.560100
      5 CAD          9.1540     0.3610    -1.8620 ca         1 EGP      -0.089000
      6 CAE          7.8540     0.8930    -1.8250 ca         1 EGP      -0.137000
      7 CAF         -1.0920    -1.9630     0.0410 ca         1 EGP      -0.119000
      8 CAG          9.5920    -0.5320    -0.9040 ca         1 EGP      -0.130000
      9 CAH          6.9690     0.5390    -0.8260 ca         1 EGP      -0.058000
     10 CAI         -2.3670    -1.9510    -0.4810 ca         1 EGP      -0.036000
     11 CAJ          7.6830    -1.7520     1.8890 cc         1 EGP      -0.153100
     12 CAK         -1.2330     0.3880     0.6360 ca         1 EGP      -0.144000
     13 CAL         -4.5710     0.9190    -0.5750 cc         1 EGP      -0.146100
     14 CAM          4.3470    -1.4490     0.8950 c3         1 EGP       0.101000
     15 CAN         -0.1930     6.1540    -0.6530 c6         1 EGP       0.133600
     16 CAO         -1.1740     6.0270     1.4600 c6         1 EGP       0.133600
     17 CAP          5.3510    -0.6970     1.7670 c3         1 EGP      -0.014200
     18 CAQ         -1.4560     5.6340    -1.3180 c6         1 EGP       0.061000
     19 CAR         -2.4750     5.5080     0.8690 c6         1 EGP       0.061000
     20 CAS         -6.4490    -3.5570     1.1770 c6         1 EGP       0.163800
     21 CAT         -6.5800    -4.7490    -0.8730 c6         1 EGP       0.163800
     22 CAU         -6.2790    -2.2570     0.4140 c6         1 EGP       0.166800
     23 CAV         -6.4150    -3.4490    -1.6370 c6         1 EGP       0.166800
     24 CAX         -5.3880    -1.2800    -1.6050 c3         1 EGP       0.246000
     25 CBE         -0.5240    -0.7970     0.5860 ca         1 EGP       0.079600
     26 CBF          6.7530    -0.9320     1.3150 cd         1 EGP      -0.147400
     27 CBG         -4.4120    -0.3930    -0.9080 cd         1 EGP      -0.128400
     28 CBH          8.6950    -0.8880     0.1020 ca         1 EGP      -0.046200
     29 CBI          7.3840    -0.3650     0.1600 ca         1 EGP      -0.094800
     30 CBJ         -3.1030    -0.7610    -0.4590 ca         1 EGP      -0.074800
     31 CBK         -2.5280     0.3860     0.1220 ca         1 EGP      -0.029200
     32 NAY          2.9950    -1.1610     1.3180 ns         1 EGP      -0.458900
     33 NAZ          0.7630    -0.8380     1.1670 ns         1 EGP      -0.382100
     34 NBA          8.8440    -1.7270     1.1670 na         1 EGP      -0.222700
     35 NBL         -7.2180    -4.5120     0.4060 n3         1 EGP      -0.718600
     36 NBM         -5.6430    -2.5000    -0.8630 n3         1 EGP      -0.723600
     37 NBN         -2.1960     4.8120    -0.3760 n          1 EGP      -0.419800
     38 OBB         -0.4810     6.8430     0.5450 os         1 EGP      -0.442000
     39 SAC          1.9820    -1.4750    -1.1160 s          1 EGP      -0.644400
     40 H1          -4.1810     3.2160     0.6790 h1         1 EGP       0.070700
     41 H2          -2.6460     2.7580     1.3800 h1         1 EGP       0.070700
     42 H3          -6.4980    -6.2570     1.4010 h1         1 EGP       0.028700
     43 H4          -7.9680    -5.5310     2.0650 h1         1 EGP       0.028700
     44 H5          -8.0400    -6.4270     0.5470 h1         1 EGP       0.028700
     45 H7           7.5460     1.5910    -2.5930 ha         1 EGP       0.114000
     46 H8          -0.5130    -2.8770     0.0430 ha         1 EGP       0.129000
     47 H9          10.5950    -0.9390    -0.9350 ha         1 EGP       0.112000
     48 H10          5.9700     0.9590    -0.8060 ha         1 EGP       0.119000
     49 H11         -2.8060    -2.8550    -0.8820 ha         1 EGP       0.134000
     50 H12          7.6020    -2.3610     2.7760 h4         1 EGP       0.210000
     51 H13         -0.7810     1.2780     1.0580 ha         1 EGP       0.110000
     52 H14         -5.4190     1.5690    -0.7330 h4         1 EGP       0.210000
     53 H15          4.4490    -1.1560    -0.1490 h1         1 EGP       0.076700
     54 H16          4.5460    -2.5240     0.9460 h1         1 EGP       0.076700
     55 H17          0.4910     5.3150    -0.4630 h1         1 EGP       0.055450
     56 H18          0.3140     6.8550    -1.3170 h1         1 EGP       0.055450
     57 H19         -1.3830     6.6290     2.3450 h1         1 EGP       0.055450
     58 H20         -0.5550     5.1720     1.7690 h1         1 EGP       0.055450
     59 H21          5.1170     0.3710     1.7370 hc         1 EGP       0.043700
     60 H22          5.2410    -1.0120     2.8080 hc         1 EGP       0.043700
     61 H23         -2.0870     6.4710    -1.6350 h1         1 EGP       0.063950
     62 H24         -1.2020     5.0540    -2.2010 h1         1 EGP       0.063950
     63 H25         -2.9670     4.8630     1.5920 h1         1 EGP       0.063950
     64 H26         -3.1570     6.3390     0.6670 h1         1 EGP       0.063950
     65 H27         -5.4520    -3.9540     1.4360 h1         1 EGP       0.036200
     66 H28         -6.9680    -3.3550     2.1180 h1         1 EGP       0.036200
     67 H29         -7.1980    -5.4340    -1.4600 h1         1 EGP       0.036200
     68 H30         -5.5900    -5.2230    -0.7550 h1         1 EGP       0.036200
     69 H31         -7.2660    -1.7760     0.2920 h1         1 EGP       0.037700
     70 H32         -5.6600    -1.5790     1.0040 h1         1 EGP       0.037700
     71 H33         -5.8970    -3.6510    -2.5780 h1         1 EGP       0.037700
     72 H34         -7.4120    -3.0510    -1.8960 h1         1 EGP       0.037700
     73 H35         -6.3140    -0.7170    -1.8130 h1         1 EGP       0.037700
     74 H36         -4.9830    -1.5710    -2.5800 h1         1 EGP       0.037700
     75 H37          2.8580    -1.0460     2.3120 hn         1 EGP       0.293500
     76 H38          0.8290    -0.5040     2.1190 hn         1 EGP       0.301500
     77 H39          9.6740    -2.2480     1.3940 hn         1 EGP       0.350000
     78 CAA         -7.4330    -5.7380     1.1370 c3         1 EGP       0.154100
     79 CBC          1.9140    -1.1500     0.5310 cs         1 EGP       0.479400
     80 H6           9.8260     0.6600    -2.6560 ha         1 EGP       0.110000
@<TRIPOS>BOND
     1     1     2 1   
     2     1    13 1   
     3     1    31 1   
     4     2     3 1   
     5     2    40 1   
     6     2    41 1   
     7     3     4 2   
     8     3    37 1   
     9     5     6 ar  
    10     5     8 ar  
    11     5    80 1   
    12     6     9 ar  
    13     6    45 1   
    14     7    10 ar  
    15     7    25 ar  
    16     7    46 1   
    17     8    28 ar  
    18     8    47 1   
    19     9    29 ar  
    20     9    48 1   
    21    10    30 ar  
    22    10    49 1   
    23    11    26 2   
    24    11    34 1   
    25    11    50 1   
    26    12    25 ar  
    27    12    31 ar  
    28    12    51 1   
    29    13    27 2   
    30    13    52 1   
    31    14    17 1   
    32    14    32 1   
    33    14    53 1   
    34    14    54 1   
    35    15    18 1   
    36    15    38 1   
    37    15    55 1   
    38    15    56 1   
    39    16    19 1   
    40    16    38 1   
    41    16    57 1   
    42    16    58 1   
    43    17    26 1   
    44    17    59 1   
    45    17    60 1   
    46    18    37 1   
    47    18    61 1   
    48    18    62 1   
    49    19    37 1   
    50    19    63 1   
    51    19    64 1   
    52    20    22 1   
    53    20    35 1   
    54    20    65 1   
    55    20    66 1   
    56    21    23 1   
    57    21    35 1   
    58    21    67 1   
    59    21    68 1   
    60    22    36 1   
    61    22    69 1   
    62    22    70 1   
    63    23    36 1   
    64    23    71 1   
    65    23    72 1   
    66    24    27 1   
    67    24    36 1   
    68    24    73 1   
    69    24    74 1   
    70    25    33 1   
    71    26    29 1   
    72    27    30 1   
    73    28    29 ar  
    74    28    34 1   
    75    30    31 ar  
    76    32    75 1   
    77    32    79 1   
    78    33    76 1   
    79    33    79 1   
    80    34    77 1   
    81    35    78 1   
    82    39    79 2   
    83    42    78 1   
    84    43    78 1   
    85    44    78 1   
@<TRIPOS>SUBSTRUCTURE
     1 EGP         1 TEMP              0 ****  ****    0 ROOT
