@<TRIPOS>MOLECULE
EGP
   80    85     1     0     0
SMALL
No Charge or Current Charge


@<TRIPOS>ATOM
      1 N           -3.5950     1.3730    -0.2110 na         1 EGP      -0.079700
      2 CA          -3.3620     2.7190     0.3480 c3         1 EGP      -0.001400
      3 C           -2.6530     3.7040    -0.6080 c          1 EGP       0.579100
      4 O           -2.4660     3.4370    -1.7900 o          1 EGP      -0.560100
      5 CAD          9.9530    -0.2540    -1.5070 ca         1 EGP      -0.089000
      6 CAE          8.7370     0.4470    -1.7010 ca         1 EGP      -0.137000
      7 CAF         -0.9840    -1.8250    -0.6620 ca         1 EGP      -0.119000
      8 CAG         10.0870    -1.1720    -0.4420 ca         1 EGP      -0.130000
      9 CAH          7.6440     0.2370    -0.8330 ca         1 EGP      -0.058000
     10 CAI         -2.3490    -1.8780    -1.0160 ca         1 EGP      -0.036000
     11 CAJ          7.5670    -2.0580     2.0580 cc         1 EGP      -0.153100
     12 CAK         -1.2350     0.4990     0.0670 ca         1 EGP      -0.144000
     13 CAL         -4.8110     0.8490    -0.6900 cc         1 EGP      -0.146100
     14 CAM          4.5340    -1.2780     0.4220 c3         1 EGP       0.101000
     15 CAN         -0.7810     7.0790    -0.2420 c6         1 EGP       0.133600
     16 CAO         -1.9750     6.6960     1.7890 c6         1 EGP       0.133600
     17 CAP          5.5000    -0.6500     1.4460 c3         1 EGP      -0.014200
     18 CAQ         -1.4890     5.9080    -0.9680 c6         1 EGP       0.061000
     19 CAR         -2.7540     5.4930     1.1950 c6         1 EGP       0.061000
     20 CAS         -6.4010    -3.6130     1.4340 c6         1 EGP       0.163800
     21 CAT         -6.7580    -4.9460    -0.5890 c6         1 EGP       0.163800
     22 CAU         -6.2200    -2.3310     0.5590 c6         1 EGP       0.166800
     23 CAV         -6.5780    -3.6630    -1.4650 c6         1 EGP       0.166800
     24 CAX         -5.5050    -1.4420    -1.6510 c3         1 EGP       0.246000
     25 CBE         -0.4170    -0.6350    -0.1340 ca         1 EGP       0.079600
     26 CBF          6.9180    -1.1250     1.2560 cd         1 EGP      -0.147400
     27 CBG         -4.5170    -0.4570    -1.0700 cd         1 EGP      -0.128400
     28 CBH          8.9840    -1.3590     0.4010 ca         1 EGP      -0.046200
     29 CBI          7.8130    -0.6820     0.2120 ca         1 EGP      -0.094800
     30 CBJ         -3.1170    -0.7250    -0.8200 ca         1 EGP      -0.074800
     31 CBK         -2.5890     0.4190    -0.2940 ca         1 EGP      -0.029200
     32 NAY          3.1570    -0.8080     0.6020 ns         1 EGP      -0.458900
     33 NAZ          0.9430    -0.5450     0.2510 ns         1 EGP      -0.382100
     34 NBA          8.8580    -2.1880     1.5010 na         1 EGP      -0.222700
     35 NBL         -7.2760    -4.6320     0.7780 n3         1 EGP      -0.718600
     36 NBM         -5.7040    -2.6440    -0.8100 n3         1 EGP      -0.723600
     37 NBN         -2.1700     4.9210    -0.0660 n          1 EGP      -0.419800
     38 OBB         -1.6430     7.6450     0.7600 os         1 EGP      -0.442000
     39 SAC          2.2070    -2.2600    -1.4280 s          1 EGP      -0.644400
     40 H1          -4.3240     3.1610     0.6320 h1         1 EGP       0.070700
     41 H2          -2.7540     2.6220     1.2540 h1         1 EGP       0.070700
     42 H3          -6.5150    -6.3550     1.7790 h1         1 EGP       0.028700
     43 H4          -7.8980    -5.5750     2.5840 h1         1 EGP       0.028700
     44 H5          -8.1560    -6.5420     1.1160 h1         1 EGP       0.028700
     45 H7           8.6450     1.1530    -2.5240 ha         1 EGP       0.114000
     46 H8          -0.3830    -2.7200    -0.7810 ha         1 EGP       0.129000
     47 H9          11.0150    -1.7150    -0.2840 ha         1 EGP       0.112000
     48 H10          6.7070     0.7710    -0.9710 ha         1 EGP       0.119000
     49 H11         -2.7930    -2.7860    -1.4170 ha         1 EGP       0.134000
     50 H12          7.2320    -2.6120     2.9310 h4         1 EGP       0.210000
     51 H13         -0.8200     1.4140     0.4810 ha         1 EGP       0.110000
     52 H14         -5.7370     1.4150    -0.7170 h4         1 EGP       0.210000
     53 H15          4.8660    -1.0270    -0.5940 h1         1 EGP       0.076700
     54 H16          4.5550    -2.3710     0.5270 h1         1 EGP       0.076700
     55 H17          0.1420     6.7210     0.2360 h1         1 EGP       0.055450
     56 H18         -0.5070     7.8580    -0.9680 h1         1 EGP       0.055450
     57 H19         -2.5840     7.1930     2.5580 h1         1 EGP       0.055450
     58 H20         -1.0490     6.3430     2.2650 h1         1 EGP       0.055450
     59 H21          5.4600     0.4420     1.3550 hc         1 EGP       0.043700
     60 H22          5.1550    -0.8930     2.4580 hc         1 EGP       0.043700
     61 H23         -2.2390     6.3250    -1.6550 h1         1 EGP       0.063950
     62 H24         -0.7450     5.3850    -1.5860 h1         1 EGP       0.063950
     63 H25         -2.8090     4.7200     1.9730 h1         1 EGP       0.063950
     64 H26         -3.7840     5.8140     0.9860 h1         1 EGP       0.063950
     65 H27         -5.4070    -4.0410     1.6340 h1         1 EGP       0.036200
     66 H28         -6.8240    -3.3180     2.4060 h1         1 EGP       0.036200
     67 H29         -7.4440    -5.6320    -1.1080 h1         1 EGP       0.036200
     68 H30         -5.7860    -5.4570    -0.5160 h1         1 EGP       0.036200
     69 H31         -7.1890    -1.8150     0.4880 h1         1 EGP       0.037700
     70 H32         -5.5330    -1.6510     1.0840 h1         1 EGP       0.037700
     71 H33         -6.1560    -3.9590    -2.4360 h1         1 EGP       0.037700
     72 H34         -7.5720    -3.2350    -1.6650 h1         1 EGP       0.037700
     73 H35         -6.4640    -0.9290    -1.8070 h1         1 EGP       0.037700
     74 H36         -5.1360    -1.7390    -2.6420 h1         1 EGP       0.037700
     75 H37          2.9900    -0.1460     1.3490 hn         1 EGP       0.293500
     76 H38          1.0950     0.1350     0.9830 hn         1 EGP       0.301500
     77 H39          9.5900    -2.7980     1.8530 hn         1 EGP       0.350000
     78 CAA         -7.4700    -5.8400     1.6080 c3         1 EGP       0.154100
     79 CBC          2.0820    -1.1960    -0.1430 cs         1 EGP       0.479400
     80 H6          10.7890    -0.0840    -2.1820 ha         1 EGP       0.110000
@<TRIPOS>BOND
     1     1     2 1   
     2     1    13 1   
     3     1    31 1   
     4     2     3 1   
     5     2    40 1   
     6     2    41 1   
     7     3     4 2   
     8     3    37 1   
     9     5     6 ar  
    10     5     8 ar  
    11     5    80 1   
    12     6     9 ar  
    13     6    45 1   
    14     7    10 ar  
    15     7    25 ar  
    16     7    46 1   
    17     8    28 ar  
    18     8    47 1   
    19     9    29 ar  
    20     9    48 1   
    21    10    30 ar  
    22    10    49 1   
    23    11    26 2   
    24    11    34 1   
    25    11    50 1   
    26    12    25 ar  
    27    12    31 ar  
    28    12    51 1   
    29    13    27 2   
    30    13    52 1   
    31    14    17 1   
    32    14    32 1   
    33    14    53 1   
    34    14    54 1   
    35    15    18 1   
    36    15    38 1   
    37    15    55 1   
    38    15    56 1   
    39    16    19 1   
    40    16    38 1   
    41    16    57 1   
    42    16    58 1   
    43    17    26 1   
    44    17    59 1   
    45    17    60 1   
    46    18    37 1   
    47    18    61 1   
    48    18    62 1   
    49    19    37 1   
    50    19    63 1   
    51    19    64 1   
    52    20    22 1   
    53    20    35 1   
    54    20    65 1   
    55    20    66 1   
    56    21    23 1   
    57    21    35 1   
    58    21    67 1   
    59    21    68 1   
    60    22    36 1   
    61    22    69 1   
    62    22    70 1   
    63    23    36 1   
    64    23    71 1   
    65    23    72 1   
    66    24    27 1   
    67    24    36 1   
    68    24    73 1   
    69    24    74 1   
    70    25    33 1   
    71    26    29 1   
    72    27    30 1   
    73    28    29 ar  
    74    28    34 1   
    75    30    31 ar  
    76    32    75 1   
    77    32    79 1   
    78    33    76 1   
    79    33    79 1   
    80    34    77 1   
    81    35    78 1   
    82    39    79 2   
    83    42    78 1   
    84    43    78 1   
    85    44    78 1   
@<TRIPOS>SUBSTRUCTURE
     1 EGP         1 TEMP              0 ****  ****    0 ROOT
