@<TRIPOS>MOLECULE
EGR
   24    24     1     0     0
SMALL
No Charge or Current Charge


@<TRIPOS>ATOM
      1 C01          4.8770     1.1960    -0.0820 c3         1 EGR      -0.098100
      2 C02          4.1110    -0.1350    -0.0450 c3         1 EGR       0.169600
      3 O03          2.7090     0.1770     0.0050 os         1 EGR      -0.445100
      4 C04          1.8140    -0.8640     0.0450 c          1 EGR       0.608700
      5 O05          2.1500    -2.0420     0.0400 o          1 EGR      -0.484000
      6 C06          0.3650    -0.4210     0.0960 ca         1 EGR      -0.070600
      7 C07         -0.6680    -1.3860     0.1380 ca         1 EGR      -0.127000
      8 C08         -2.0170    -0.9990     0.1820 ca         1 EGR       0.156100
      9 O09         -2.9860    -1.9610     0.1720 oh         1 EGR      -0.523600
     10 C10         -2.3630     0.3700     0.2040 ca         1 EGR      -0.086900
     11 O11         -3.6760     0.7850     0.2960 oh         1 EGR      -0.565100
     12 C12         -1.3390     1.3320     0.1480 ca         1 EGR       0.156100
     13 O13         -1.6780     2.6490     0.1580 oh         1 EGR      -0.523600
     14 C14          0.0090     0.9480     0.0960 ca         1 EGR      -0.127000
     15 H1           5.9570     1.0110    -0.1210 hc         1 EGR       0.047700
     16 H2           4.5960     1.7800    -0.9670 hc         1 EGR       0.047700
     17 H3           4.6620     1.7900     0.8140 hc         1 EGR       0.047700
     18 H4           4.3510    -0.7210    -0.9430 h1         1 EGR       0.049700
     19 H5           4.4170    -0.7100     0.8390 h1         1 EGR       0.049700
     20 H6          -0.4260    -2.4460     0.1240 ha         1 EGR       0.154000
     21 H7          -3.7940    -1.5720    -0.2270 ho         1 EGR       0.478000
     22 H8          -4.1600     0.2170     0.9400 ho         1 EGR       0.455000
     23 H9          -2.6610     2.6600     0.1900 ho         1 EGR       0.478000
     24 H10          0.7730     1.7220     0.0600 ha         1 EGR       0.154000
@<TRIPOS>BOND
     1     1     2 1   
     2     1    15 1   
     3     1    16 1   
     4     1    17 1   
     5     2     3 1   
     6     2    18 1   
     7     2    19 1   
     8     3     4 1   
     9     4     5 2   
    10     4     6 1   
    11     6     7 ar  
    12     6    14 ar  
    13     7     8 ar  
    14     7    20 1   
    15     8     9 1   
    16     8    10 ar  
    17     9    21 1   
    18    10    11 1   
    19    10    12 ar  
    20    11    22 1   
    21    12    13 1   
    22    12    14 ar  
    23    13    23 1   
    24    14    24 1   
@<TRIPOS>SUBSTRUCTURE
     1 EGR         1 TEMP              0 ****  ****    0 ROOT
