@<TRIPOS>MOLECULE
EGR
   24    24     1     0     0
SMALL
bcc


@<TRIPOS>ATOM
      1 C01          4.7770     1.1880     0.0620 c3         1 EGR      -0.098100
      2 C02          4.0400    -0.1210    -0.0820 c3         1 EGR       0.146400
      3 O03          2.6330     0.1640    -0.0380 os         1 EGR      -0.421900
      4 C04          1.7850    -0.8490    -0.0700 c          1 EGR       0.657700
      5 O05          2.1220    -2.0070    -0.1080 o          1 EGR      -0.533000
      6 C06          0.3640    -0.4130     0.0160 ca         1 EGR      -0.070600
      7 C07         -0.6050    -1.4080     0.0710 ca         1 EGR      -0.145000
      8 C08         -1.9450    -1.0560     0.1460 ca         1 EGR       0.156100
      9 O09         -2.8700    -2.0280     0.1950 oh         1 EGR      -0.484600
     10 C10         -2.3070     0.2930     0.1670 ca         1 EGR      -0.086900
     11 O11         -3.6360     0.6510     0.2010 oh         1 EGR      -0.526100
     12 C12         -1.3270     1.2860     0.0950 ca         1 EGR       0.156100
     13 O13         -1.6620     2.5870     0.0940 oh         1 EGR      -0.484600
     14 C14          0.0150     0.9340     0.0220 ca         1 EGR      -0.145000
     15 H1           5.8490     0.9980     0.0270 hc         1 EGR       0.047700
     16 H2           4.5340     1.8790    -0.7440 hc         1 EGR       0.047700
     17 H3           4.5530     1.6700     1.0140 hc         1 EGR       0.047700
     18 H4           4.2830    -0.6030    -1.0310 h1         1 EGR       0.049700
     19 H5           4.3030    -0.8080     0.7220 h1         1 EGR       0.049700
     20 H6          -0.3270    -2.4530     0.0570 ha         1 EGR       0.172000
     21 H7          -3.7560    -1.6440     0.1790 ho         1 EGR       0.439000
     22 H8          -3.9370     0.7290     1.1170 ho         1 EGR       0.416000
     23 H9          -2.6230     2.6780     0.0780 ho         1 EGR       0.439000
     24 H10          0.7590     1.7130    -0.0290 ha         1 EGR       0.172000
@<TRIPOS>BOND
     1     1     2 1   
     2     1    15 1   
     3     1    16 1   
     4     1    17 1   
     5     2     3 1   
     6     2    18 1   
     7     2    19 1   
     8     3     4 1   
     9     4     5 2   
    10     4     6 1   
    11     6     7 ar  
    12     6    14 ar  
    13     7     8 ar  
    14     7    20 1   
    15     8     9 1   
    16     8    10 ar  
    17     9    21 1   
    18    10    11 1   
    19    10    12 ar  
    20    11    22 1   
    21    12    13 1   
    22    12    14 ar  
    23    13    23 1   
    24    14    24 1   
@<TRIPOS>SUBSTRUCTURE
     1 EGR         1 TEMP              0 ****  ****    0 ROOT
