@<TRIPOS>MOLECULE
EGT
   36    38     1     0     0
SMALL
abcg2


@<TRIPOS>ATOM
      1 O1          -0.6600    -0.5650    -0.4280 os         1 EGT      -0.325100
      2 C2           0.1350     0.6090    -0.4510 c6         1 EGT       0.236600
      3 C3          -0.3750     1.6200     0.5680 c6         1 EGT       0.144300
      4 C4          -1.7930     2.0140     0.1740 c6         1 EGT      -0.052100
      5 C5          -2.6190     0.7860    -0.0950 ca         1 EGT      -0.294300
      6 C6          -4.0160     0.8020    -0.0660 ca         1 EGT       0.220100
      7 C7          -4.7670    -0.3500    -0.2650 ca         1 EGT      -0.281000
      8 C8          -4.1140    -1.5540    -0.5050 ca         1 EGT       0.208100
      9 C9          -2.7280    -1.6050    -0.5620 ca         1 EGT      -0.217000
     10 C10         -2.0020    -0.4370    -0.3600 ca         1 EGT       0.231100
     11 C11          1.5680     0.2160    -0.2200 ca         1 EGT      -0.041300
     12 C12          2.5610     0.9910    -0.8100 ca         1 EGT      -0.151000
     13 C13          3.8990     0.6990    -0.5880 ca         1 EGT       0.118100
     14 C14          4.2560    -0.3760     0.2240 ca         1 EGT       0.017100
     15 C15          3.2560    -1.1490     0.8110 ca         1 EGT       0.118100
     16 C16          1.9160    -0.8530     0.5920 ca         1 EGT      -0.151000
     17 O17         -0.3200     1.0160     1.8330 oh         1 EGT      -0.632000
     18 O18         -4.7100     1.9360     0.1630 oh         1 EGT      -0.537100
     19 O19         -4.7880    -2.7040    -0.7030 oh         1 EGT      -0.527100
     20 O20          4.9200     1.4000    -1.1290 oh         1 EGT      -0.541100
     21 O21          5.5450    -0.7270     0.4660 oh         1 EGT      -0.556100
     22 O22          3.5650    -2.1970     1.6030 oh         1 EGT      -0.541100
     23 HC2          0.0550     1.0800    -1.4400 h1         1 EGT       0.054700
     24 HC3          0.2700     2.5060     0.5100 h1         1 EGT       0.041700
     25 HC41        -2.2210     2.6200     0.9810 hc         1 EGT       0.046200
     26 HC42        -1.7460     2.6660    -0.7040 hc         1 EGT       0.046200
     27 HC7         -5.8500    -0.2980    -0.2340 ha         1 EGT       0.131000
     28 HC9         -2.2160    -2.5380    -0.7640 ha         1 EGT       0.148000
     29 H12          2.2950     1.8250    -1.4510 ha         1 EGT       0.133000
     30 H16          1.1630    -1.4680     1.0660 ha         1 EGT       0.133000
     31 H17         -0.6350     1.6520     2.4840 ho         1 EGT       0.444000
     32 H18         -4.1280     2.7000     0.2180 ho         1 EGT       0.466000
     33 H19         -5.7370    -2.5490    -0.6430 ho         1 EGT       0.468000
     34 H20          4.5880     2.1600    -1.6180 ho         1 EGT       0.478000
     35 H21          6.1490    -0.0270     0.1930 ho         1 EGT       0.487000
     36 H22          4.5210    -2.2680     1.7120 ho         1 EGT       0.478000
@<TRIPOS>BOND
     1     1     2 1   
     2     1    10 1   
     3     2     3 1   
     4     2    11 1   
     5     2    23 1   
     6     3     4 1   
     7     3    17 1   
     8     3    24 1   
     9     4     5 1   
    10     4    25 1   
    11     4    26 1   
    12     5     6 ar  
    13     5    10 ar  
    14     6     7 ar  
    15     6    18 1   
    16     7     8 ar  
    17     7    27 1   
    18     8     9 ar  
    19     8    19 1   
    20     9    10 ar  
    21     9    28 1   
    22    11    12 ar  
    23    11    16 ar  
    24    12    13 ar  
    25    12    29 1   
    26    13    14 ar  
    27    13    20 1   
    28    14    15 ar  
    29    14    21 1   
    30    15    16 ar  
    31    15    22 1   
    32    16    30 1   
    33    17    31 1   
    34    18    32 1   
    35    19    33 1   
    36    20    34 1   
    37    21    35 1   
    38    22    36 1   
@<TRIPOS>SUBSTRUCTURE
     1 EGT         1 TEMP              0 ****  ****    0 ROOT
