@<TRIPOS>MOLECULE
EGT
   36    38     1     0     0
SMALL
No Charge or Current Charge


@<TRIPOS>ATOM
      1 O1          -0.6490    -0.5790    -0.3460 os         1 EGT      -0.325100
      2 C2           0.1460     0.6280    -0.3100 c6         1 EGT       0.236600
      3 C3          -0.3980     1.6190     0.7620 c6         1 EGT       0.144300
      4 C4          -1.8480     1.9850     0.3630 c6         1 EGT      -0.052100
      5 C5          -2.6760     0.7460    -0.0370 ca         1 EGT      -0.294300
      6 C6          -4.0840     0.7880    -0.0920 ca         1 EGT       0.220100
      7 C7          -4.8210    -0.3520    -0.4300 ca         1 EGT      -0.281000
      8 C8          -4.1630    -1.5510    -0.7200 ca         1 EGT       0.208100
      9 C9          -2.7680    -1.6110    -0.6840 ca         1 EGT      -0.217000
     10 C10         -2.0230    -0.4710    -0.3560 ca         1 EGT       0.231100
     11 C11          1.6280     0.2610    -0.1170 ca         1 EGT      -0.041300
     12 C12          2.6170     0.9000    -0.8950 ca         1 EGT      -0.151000
     13 C13          3.9750     0.5730    -0.7300 ca         1 EGT       0.118100
     14 C14          4.3560    -0.3990     0.2170 ca         1 EGT       0.017100
     15 C15          3.3720    -1.0380     0.9940 ca         1 EGT       0.118100
     16 C16          2.0180    -0.7120     0.8290 ca         1 EGT      -0.151000
     17 O17         -0.3900     1.0530     2.0890 oh         1 EGT      -0.632000
     18 O18         -4.7550     1.9380     0.1780 oh         1 EGT      -0.537100
     19 O19         -4.8780    -2.6600    -1.0450 oh         1 EGT      -0.527100
     20 O20          4.9340     1.1940    -1.4850 oh         1 EGT      -0.541100
     21 O21          5.6820    -0.7170     0.3760 oh         1 EGT      -0.556100
     22 O22          3.7460    -1.9780     1.9090 oh         1 EGT      -0.541100
     23 HC2          0.0430     1.1110    -1.2930 h1         1 EGT       0.054700
     24 HC3          0.2140     2.5320     0.7440 h1         1 EGT       0.041700
     25 HC41        -2.3240     2.5320     1.1890 hc         1 EGT       0.046200
     26 HC42        -1.8160     2.6810    -0.4880 hc         1 EGT       0.046200
     27 HC7         -5.9050    -0.2950    -0.4640 ha         1 EGT       0.131000
     28 HC9         -2.2580    -2.5400    -0.9160 ha         1 EGT       0.148000
     29 H12          2.3250     1.6510    -1.6260 ha         1 EGT       0.133000
     30 H16          1.2680    -1.2110     1.4380 ha         1 EGT       0.133000
     31 H17         -0.8230     1.7060     2.6800 ho         1 EGT       0.444000
     32 H18         -4.0880     2.6340     0.3490 ho         1 EGT       0.466000
     33 H19         -5.8290    -2.4260    -1.0190 ho         1 EGT       0.468000
     34 H20          4.4970     1.8340    -2.0880 ho         1 EGT       0.478000
     35 H21          6.1860    -0.1570    -0.2600 ho         1 EGT       0.487000
     36 H22          4.7260    -2.0370     1.8470 ho         1 EGT       0.478000
@<TRIPOS>BOND
     1     1     2 1   
     2     1    10 1   
     3     2     3 1   
     4     2    11 1   
     5     2    23 1   
     6     3     4 1   
     7     3    17 1   
     8     3    24 1   
     9     4     5 1   
    10     4    25 1   
    11     4    26 1   
    12     5     6 ar  
    13     5    10 ar  
    14     6     7 ar  
    15     6    18 1   
    16     7     8 ar  
    17     7    27 1   
    18     8     9 ar  
    19     8    19 1   
    20     9    10 ar  
    21     9    28 1   
    22    11    12 ar  
    23    11    16 ar  
    24    12    13 ar  
    25    12    29 1   
    26    13    14 ar  
    27    13    20 1   
    28    14    15 ar  
    29    14    21 1   
    30    15    16 ar  
    31    15    22 1   
    32    16    30 1   
    33    17    31 1   
    34    18    32 1   
    35    19    33 1   
    36    20    34 1   
    37    21    35 1   
    38    22    36 1   
@<TRIPOS>SUBSTRUCTURE
     1 EGT         1 TEMP              0 ****  ****    0 ROOT
