@<TRIPOS>MOLECULE
EGU
   47    50     1     0     0
SMALL
bcc


@<TRIPOS>ATOM
      1 C27         29.2730    -6.8650    40.6240 ca         1 EGU      -0.070000
      2 C32         29.6350    -7.5250    41.7940 ca         1 EGU      -0.215000
      3 C10         30.6440    -7.2600    34.4360 ca         1 EGU      -0.134000
      4 C30         31.9250    -6.7940    41.5070 ca         1 EGU      -0.145000
      5 C13         28.5320    -5.5260    34.8360 ca         1 EGU      -0.112000
      6 C9          30.7300    -5.9690    33.9170 ca         1 EGU      -0.115600
      7 C28         30.2290    -6.1770    39.9030 ca         1 EGU      -0.122300
      8 C29         31.5420    -6.1490    40.3500 ca         1 EGU      -0.066300
      9 C14         29.6660    -5.0960    34.1530 ca         1 EGU       0.068600
     10 C31         30.9590    -7.4900    42.2390 ca         1 EGU       0.132100
     11 C11         29.5190    -7.6770    35.1070 ca         1 EGU       0.104900
     12 C12         28.4480    -6.8210    35.3040 ca         1 EGU      -0.045600
     13 C21         31.5100    -3.3400    35.3130 cc         1 EGU       0.365800
     14 C20         32.8500    -3.1780    35.4300 cd         1 EGU       0.001000
     15 C23         31.7580    -4.2770    37.2920 cd         1 EGU       0.727300
     16 C26         30.0760    -5.4020    38.6330 c5         1 EGU       0.288100
     17 C24         32.3980    -5.3540    39.4120 c5         1 EGU       0.282100
     18 N22         30.9000    -3.9350    36.3790 nc         1 EGU      -0.716000
     19 N25         31.4340    -4.9200    38.4160 nh         1 EGU      -0.796300
     20 N15         29.7000    -3.7340    33.7590 n          1 EGU      -0.354000
     21 O6          31.8570    -4.7360    32.2380 o          1 EGU      -0.803300
     22 O16         30.9160    -1.8370    33.5890 o          1 EGU      -0.593100
     23 O7          33.0070    -6.2590    33.3950 o          1 EGU      -0.803300
     24 O2          31.3950    -8.0960    43.3590 os         1 EGU      -0.322900
     25 F5          29.4490    -8.9230    35.5850 f          1 EGU      -0.152900
     26 S19         33.4150    -3.8480    36.9300 ss         1 EGU      -0.259300
     27 CL4         27.0670    -7.3670    36.1790 cl         1 EGU      -0.138400
     28 H1          28.2430    -6.9000    40.2920 ha         1 EGU       0.138000
     29 H2          28.8740    -8.0580    42.3460 ha         1 EGU       0.130000
     30 H3          31.4680    -7.9480    34.3030 ha         1 EGU       0.170000
     31 H4          32.9510    -6.7710    41.8530 ha         1 EGU       0.145000
     32 H5          27.7280    -4.8280    35.0300 ha         1 EGU       0.137000
     33 H6          29.3700    -4.5710    38.7250 h1         1 EGU       0.075700
     34 H7          33.1910    -5.9670    38.9660 h1         1 EGU       0.059700
     35 H8          28.4980    -2.3190    32.7740 h1         1 EGU       0.038367
     36 H9          29.4250    -3.3850    31.7000 h1         1 EGU       0.038367
     37 H10         28.0170    -4.0030    32.5740 h1         1 EGU       0.038367
     38 H11         31.0360    -9.2460    44.9710 h1         1 EGU       0.037033
     39 H12         29.6660    -8.2180    44.5180 h1         1 EGU       0.037033
     40 H13         30.0440    -9.6700    43.5650 h1         1 EGU       0.037033
     41 H15         29.7420    -6.0200    37.7940 h1         1 EGU       0.075700
     42 H16         32.8780    -4.5030    39.9080 h1         1 EGU       0.059700
     43 C17         30.7060    -2.9060    34.1330 c          1 EGU       0.638600
     44 C3          28.8700    -3.3330    32.6370 c3         1 EGU       0.099300
     45 CL2         33.9610    -2.5160    34.3270 cl         1 EGU      -0.008400
     46 C1          30.4770    -8.8410    44.1310 c3         1 EGU       0.128700
     47 C8          31.9850    -5.6090    33.1120 c          1 EGU       0.922200
@<TRIPOS>BOND
     1     1     2 ar  
     2     1     7 ar  
     3     1    28 1   
     4     2    10 ar  
     5     2    29 1   
     6     3     6 ar  
     7     3    11 ar  
     8     3    30 1   
     9     4     8 ar  
    10     4    10 ar  
    11     4    31 1   
    12     5     9 ar  
    13     5    12 ar  
    14     5    32 1   
    15     6     9 ar  
    16     6    47 1   
    17     7     8 ar  
    18     7    16 1   
    19     8    17 1   
    20     9    20 1   
    21    10    24 1   
    22    11    12 ar  
    23    11    25 1   
    24    12    27 1   
    25    13    14 2   
    26    13    18 1   
    27    13    43 1   
    28    14    26 1   
    29    14    45 1   
    30    15    18 2   
    31    15    19 1   
    32    15    26 1   
    33    16    19 1   
    34    16    33 1   
    35    16    41 1   
    36    17    19 1   
    37    17    34 1   
    38    17    42 1   
    39    20    43 1   
    40    20    44 1   
    41    21    47 1   
    42    22    43 2   
    43    23    47 1   
    44    24    46 1   
    45    35    44 1   
    46    36    44 1   
    47    37    44 1   
    48    38    46 1   
    49    39    46 1   
    50    40    46 1   
@<TRIPOS>SUBSTRUCTURE
     1 EGU         1 TEMP              0 ****  ****    0 ROOT
