@<TRIPOS>MOLECULE
EGU
   47    50     1     0     0
SMALL
No Charge or Current Charge


@<TRIPOS>ATOM
      1 C27         29.5690    -7.3590    40.2900 ca         1 EGU      -0.052000
      2 C32         29.9000    -7.9220    41.5390 ca         1 EGU      -0.197000
      3 C10         30.1330    -7.3470    34.8520 ca         1 EGU      -0.116000
      4 C30         31.9220    -6.5500    41.6380 ca         1 EGU      -0.127000
      5 C13         28.2990    -5.2370    34.6590 ca         1 EGU      -0.094000
      6 C9          30.4970    -6.1800    34.1410 ca         1 EGU      -0.115600
      7 C28         30.4250    -6.3960    39.7360 ca         1 EGU      -0.122300
      8 C29         31.5770    -6.0000    40.3930 ca         1 EGU      -0.066300
      9 C14         29.5470    -5.1240    34.0050 ca         1 EGU      -0.024000
     10 C31         31.0790    -7.5180    42.2170 ca         1 EGU       0.132100
     11 C11         28.8720    -7.4590    35.4520 ca         1 EGU       0.140000
     12 C12         27.9540    -6.3990    35.3650 ca         1 EGU       0.046000
     13 C21         31.6690    -3.3110    35.1970 cc         1 EGU       0.300500
     14 C20         32.8930    -2.7530    35.5570 cd         1 EGU       0.013000
     15 C23         31.8680    -4.0870    37.2550 cd         1 EGU       0.727300
     16 C26         30.2710    -5.6700    38.4220 c5         1 EGU       0.288100
     17 C24         32.3290    -4.9600    39.5950 c5         1 EGU       0.282100
     18 N22         31.0790    -4.0570    36.2090 nc         1 EGU      -0.716000
     19 N25         31.4680    -4.7730    38.3890 nh         1 EGU      -0.796300
     20 N15         29.9030    -3.8350    33.4580 n          1 EGU      -0.194400
     21 O6          31.9920    -5.6510    32.3930 o          1 EGU      -0.698000
     22 O16         31.4190    -2.1480    33.0800 o          1 EGU      -0.593100
     23 O7          32.8160    -6.5810    34.1470 o          1 EGU      -0.698000
     24 O2          31.4450    -8.0390    43.4410 os         1 EGU      -0.346100
     25 F5          28.5590    -8.5810    36.1400 f          1 EGU      -0.188000
     26 S19         33.3700    -3.1940    37.1880 ss         1 EGU      -0.114400
     27 Cl4         26.3850    -6.4940    36.1620 cl         1 EGU      -0.230000
     28 H1          28.6670    -7.6660    39.7640 ha         1 EGU       0.120000
     29 H2          29.2330    -8.6670    41.9630 ha         1 EGU       0.112000
     30 H3          30.8370    -8.1710    34.9460 ha         1 EGU       0.152000
     31 H4          32.8280    -6.2350    42.1490 ha         1 EGU       0.127000
     32 H5          27.5970    -4.4080    34.6340 ha         1 EGU       0.119000
     33 H6          29.3310    -5.1020    38.3900 h1         1 EGU       0.075700
     34 H7          33.3320    -5.3240    39.3310 h1         1 EGU       0.059700
     35 H8          28.5860    -2.3250    32.7700 h1         1 EGU       0.038367
     36 H9          29.5590    -3.1190    31.4930 h1         1 EGU       0.038367
     37 H10         28.1770    -3.9750    32.2200 h1         1 EGU       0.038367
     38 H11         31.1260    -9.3070    45.0710 h1         1 EGU       0.037033
     39 H12         29.6500    -8.6510    44.3340 h1         1 EGU       0.037033
     40 H13         30.5660    -9.9410    43.5100 h1         1 EGU       0.037033
     41 H15         30.2720    -6.3810    37.5850 h1         1 EGU       0.075700
     42 H16         32.4370    -4.0280    40.1670 h1         1 EGU       0.059700
     43 C17         31.0340    -3.0420    33.8360 c          1 EGU       0.571600
     44 C3          29.0020    -3.2800    32.4240 c3         1 EGU       0.099300
     45 Cl2         33.9570    -1.7670    34.5940 cl         1 EGU      -0.100000
     46 C1          30.6560    -9.0330    44.1190 c3         1 EGU       0.151900
     47 C8          31.8770    -6.1170    33.5170 c          1 EGU       0.711600
@<TRIPOS>BOND
     1     1     2 ar  
     2     1     7 ar  
     3     1    28 1   
     4     2    10 ar  
     5     2    29 1   
     6     3     6 ar  
     7     3    11 ar  
     8     3    30 1   
     9     4     8 ar  
    10     4    10 ar  
    11     4    31 1   
    12     5     9 ar  
    13     5    12 ar  
    14     5    32 1   
    15     6     9 ar  
    16     6    47 1   
    17     7     8 ar  
    18     7    16 1   
    19     8    17 1   
    20     9    20 1   
    21    10    24 1   
    22    11    12 ar  
    23    11    25 1   
    24    12    27 1   
    25    13    14 2   
    26    13    18 1   
    27    13    43 1   
    28    14    26 1   
    29    14    45 1   
    30    15    18 2   
    31    15    19 1   
    32    15    26 1   
    33    16    19 1   
    34    16    33 1   
    35    16    41 1   
    36    17    19 1   
    37    17    34 1   
    38    17    42 1   
    39    20    43 1   
    40    20    44 1   
    41    21    47 1   
    42    22    43 2   
    43    23    47 1   
    44    24    46 1   
    45    35    44 1   
    46    36    44 1   
    47    37    44 1   
    48    38    46 1   
    49    39    46 1   
    50    40    46 1   
@<TRIPOS>SUBSTRUCTURE
     1 EGU         1 TEMP              0 ****  ****    0 ROOT
