@<TRIPOS>MOLECULE
EGW
   54    57     1     0     0
SMALL
bcc


@<TRIPOS>ATOM
      1 C           -1.4370    -3.6860     0.6120 c          1 EGW       0.685700
      2 O           -1.6200    -4.3920    -0.3720 o          1 EGW      -0.609100
      3 O1          -3.5530     1.5460     0.5770 os         1 EGW      -0.252200
      4 C1          -1.9750    -2.2910     0.6600 ca         1 EGW      -0.163600
      5 N           -0.7580    -4.1070     1.6870 nt         1 EGW      -0.667000
      6 C10         -1.5400     2.5060    -0.3510 ca         1 EGW      -0.172000
      7 C11          0.4780     3.5240    -1.4050 c          1 EGW       0.686700
      8 C12          1.4970     2.2340     0.4660 c6         1 EGW       0.099500
      9 C13          1.5750     0.7160     0.5050 c6         1 EGW      -0.089900
     10 C14          2.7490     0.2050    -0.3320 c6         1 EGW      -0.010400
     11 C15          2.6890     0.8030    -1.7420 c6         1 EGW      -0.089900
     12 C16          2.5810     2.3230    -1.7040 c6         1 EGW       0.099500
     13 C17          2.8120    -1.3010    -0.3540 ca         1 EGW      -0.096300
     14 C18          3.9390    -1.9710     0.1110 ca         1 EGW      -0.101500
     15 C19          4.0160    -3.3590     0.1010 ca         1 EGW      -0.168500
     16 C2          -2.9940    -1.9500    -0.2250 ca         1 EGW      -0.076000
     17 C20          2.9410    -4.0730    -0.3850 ca         1 EGW       0.130900
     18 C21          1.8020    -3.4490    -0.8570 ca         1 EGW      -0.168500
     19 C22          1.7480    -2.0640    -0.8360 ca         1 EGW      -0.101500
     20 C23         -1.9900    -0.0250     1.5010 ca         1 EGW      -0.159000
     21 C24         -1.4800    -1.3120     1.5200 ca         1 EGW      -0.076000
     22 C3          -3.5130    -0.6670    -0.2540 ca         1 EGW      -0.159000
     23 C4          -3.0060     0.2930     0.6080 ca         1 EGW       0.128100
     24 C5          -2.7560     2.6200     0.3080 ca         1 EGW       0.122100
     25 C6          -3.2320     3.8680     0.6940 ca         1 EGW      -0.136000
     26 C7          -2.4880     5.0000     0.4010 ca         1 EGW      -0.107000
     27 C8          -1.2720     4.9020    -0.2620 ca         1 EGW      -0.111000
     28 C9          -0.7930     3.6480    -0.6210 ca         1 EGW      -0.112600
     29 F            3.0020    -5.4170    -0.4000 f          1 EGW      -0.144900
     30 N1           1.4320     2.7150    -0.9050 n          1 EGW      -0.479800
     31 O2           0.5840     4.1170    -2.4700 o          1 EGW      -0.588100
     32 H1          -0.3570    -5.0300     1.6930 hn         1 EGW       0.317000
     33 H2          -0.6840    -3.5740     2.5360 hn         1 EGW       0.317000
     34 H3          -1.1710     1.5380    -0.6660 ha         1 EGW       0.150000
     35 H4           0.6480     2.5950     1.0400 h1         1 EGW       0.055700
     36 H5           2.3940     2.6600     0.9290 h1         1 EGW       0.055700
     37 H6           1.6800     0.3890     1.5410 hc         1 EGW       0.052700
     38 H7           0.6340     0.2940     0.1360 hc         1 EGW       0.052700
     39 H8           3.6710     0.5680     0.1380 hc         1 EGW       0.049700
     40 H9           3.5820     0.5230    -2.3040 hc         1 EGW       0.052700
     41 H10          1.8290     0.4000    -2.2850 hc         1 EGW       0.052700
     42 H11          3.4880     2.7560    -1.2680 h1         1 EGW       0.055700
     43 H12          2.4790     2.7240    -2.7090 h1         1 EGW       0.055700
     44 H13          4.7790    -1.4040     0.4930 ha         1 EGW       0.135000
     45 H14          4.8980    -3.8680     0.4680 ha         1 EGW       0.157500
     46 H15         -3.3880    -2.6930    -0.9050 ha         1 EGW       0.146000
     47 H16          0.9690    -4.0310    -1.2280 ha         1 EGW       0.157500
     48 H17          0.8540    -1.5780    -1.2060 ha         1 EGW       0.135000
     49 H18         -1.5890     0.7230     2.1730 ha         1 EGW       0.151500
     50 H19         -0.6720    -1.5220     2.2080 ha         1 EGW       0.146000
     51 H20         -4.3050    -0.4120    -0.9460 ha         1 EGW       0.151500
     52 H21         -4.1790     3.9480     1.2120 ha         1 EGW       0.150000
     53 H22         -2.8630     5.9710     0.6970 ha         1 EGW       0.140000
     54 H23         -0.6990     5.7920    -0.4840 ha         1 EGW       0.149000
@<TRIPOS>BOND
     1     1     2 2   
     2     1     4 1   
     3     1     5 1   
     4     3    23 1   
     5     3    24 1   
     6     4    16 ar  
     7     4    21 ar  
     8     5    32 1   
     9     5    33 1   
    10     6    24 ar  
    11     6    28 ar  
    12     6    34 1   
    13     7    28 1   
    14     7    30 1   
    15     7    31 2   
    16     8     9 1   
    17     8    30 1   
    18     8    35 1   
    19     8    36 1   
    20     9    10 1   
    21     9    37 1   
    22     9    38 1   
    23    10    11 1   
    24    10    13 1   
    25    10    39 1   
    26    11    12 1   
    27    11    40 1   
    28    11    41 1   
    29    12    30 1   
    30    12    42 1   
    31    12    43 1   
    32    13    14 ar  
    33    13    19 ar  
    34    14    15 ar  
    35    14    44 1   
    36    15    17 ar  
    37    15    45 1   
    38    16    22 ar  
    39    16    46 1   
    40    17    18 ar  
    41    17    29 1   
    42    18    19 ar  
    43    18    47 1   
    44    19    48 1   
    45    20    21 ar  
    46    20    23 ar  
    47    20    49 1   
    48    21    50 1   
    49    22    23 ar  
    50    22    51 1   
    51    24    25 ar  
    52    25    26 ar  
    53    25    52 1   
    54    26    27 ar  
    55    26    53 1   
    56    27    28 ar  
    57    27    54 1   
@<TRIPOS>SUBSTRUCTURE
     1 EGW         1 TEMP              0 ****  ****    0 ROOT
