@<TRIPOS>MOLECULE
EGW
   54    57     1     0     0
SMALL
No Charge or Current Charge


@<TRIPOS>ATOM
      1 C           -1.2380    -3.4240     0.8740 c          1 EGW       0.618700
      2 O           -1.5120    -4.3420     0.1190 o          1 EGW      -0.609100
      3 O1          -3.7350     1.6990     0.3890 os         1 EGW      -0.252200
      4 C1          -1.9150    -2.0720     0.7940 ca         1 EGW      -0.163600
      5 N           -0.2960    -3.6170     1.8210 nt         1 EGW      -0.600000
      6 C10         -1.6630     2.7160    -0.3420 ca         1 EGW      -0.154000
      7 C11          0.5650     3.7310    -1.0490 c          1 EGW       0.619700
      8 C12          1.2630     1.8760     0.4770 c6         1 EGW       0.099500
      9 C13          1.4500     0.3460     0.4260 c6         1 EGW      -0.089900
     10 C14          2.7100    -0.0380    -0.3850 c6         1 EGW      -0.010400
     11 C15          2.6420     0.6160    -1.7870 c6         1 EGW      -0.089900
     12 C16          2.4040     2.1460    -1.7020 c6         1 EGW       0.099500
     13 C17          2.8850    -1.5630    -0.4630 ca         1 EGW      -0.096300
     14 C18          4.0520    -2.1650     0.0540 ca         1 EGW      -0.083500
     15 C19          4.2130    -3.5610     0.0010 ca         1 EGW      -0.150500
     16 C2          -2.8800    -1.8350    -0.2130 ca         1 EGW      -0.058000
     17 C20          3.2100    -4.3610    -0.5660 ca         1 EGW       0.166000
     18 C21          2.0460    -3.7740    -1.0840 ca         1 EGW      -0.150500
     19 C22          1.8840    -2.3780    -1.0340 ca         1 EGW      -0.083500
     20 C23         -2.2330     0.2280     1.5750 ca         1 EGW      -0.141000
     21 C24         -1.6070    -1.0250     1.6980 ca         1 EGW      -0.058000
     22 C3          -3.5050    -0.5810    -0.3290 ca         1 EGW      -0.141000
     23 C4          -3.1730     0.4540     0.5550 ca         1 EGW       0.128100
     24 C5          -2.9580     2.8220     0.1970 ca         1 EGW       0.122100
     25 C6          -3.4720     4.0840     0.5310 ca         1 EGW      -0.118000
     26 C7          -2.6860     5.2340     0.3390 ca         1 EGW      -0.089000
     27 C8          -1.3800     5.1230    -0.1750 ca         1 EGW      -0.093000
     28 C9          -0.8440     3.8580    -0.5000 ca         1 EGW      -0.112600
     29 F            3.3650    -5.7020    -0.6130 f          1 EGW      -0.180000
     30 N1           1.2080     2.4840    -0.8850 n          1 EGW      -0.412800
     31 O2           1.0810     4.6330    -1.6990 o          1 EGW      -0.588100
     32 H1           0.1640    -4.5120     1.8780 hn         1 EGW       0.317000
     33 H2          -0.0480    -2.8730     2.4530 hn         1 EGW       0.317000
     34 H3          -1.2890     1.7430    -0.6470 ha         1 EGW       0.132000
     35 H4           0.3630     2.1110     1.0590 h1         1 EGW       0.055700
     36 H5           2.1090     2.3210     1.0220 h1         1 EGW       0.055700
     37 H6           1.5250    -0.0520     1.4470 hc         1 EGW       0.052700
     38 H7           0.5550    -0.1040    -0.0220 hc         1 EGW       0.052700
     39 H8           3.5800     0.3870     0.1360 hc         1 EGW       0.049700
     40 H9           3.5700     0.4170    -2.3390 hc         1 EGW       0.052700
     41 H10          1.8290     0.1650    -2.3730 hc         1 EGW       0.052700
     42 H11          3.2880     2.6310    -1.2620 h1         1 EGW       0.055700
     43 H12          2.2830     2.5440    -2.7200 h1         1 EGW       0.055700
     44 H13          4.8340    -1.5540     0.4990 ha         1 EGW       0.117000
     45 H14          5.1120    -4.0230     0.4000 ha         1 EGW       0.139500
     46 H15         -3.1400    -2.6210    -0.9190 ha         1 EGW       0.128000
     47 H16          1.2720    -4.4000    -1.5200 ha         1 EGW       0.139500
     48 H17          0.9760    -1.9360    -1.4390 ha         1 EGW       0.117000
     49 H18         -1.9770     1.0300     2.2630 ha         1 EGW       0.133500
     50 H19         -0.8780    -1.1610     2.4920 ha         1 EGW       0.128000
     51 H20         -4.2310    -0.4050    -1.1190 ha         1 EGW       0.133500
     52 H21         -4.4760     4.1700     0.9370 ha         1 EGW       0.132000
     53 H22         -3.0860     6.2130     0.5940 ha         1 EGW       0.122000
     54 H23         -0.7790     6.0210    -0.3080 ha         1 EGW       0.131000
@<TRIPOS>BOND
     1     1     2 2   
     2     1     4 1   
     3     1     5 1   
     4     3    23 1   
     5     3    24 1   
     6     4    16 ar  
     7     4    21 ar  
     8     5    32 1   
     9     5    33 1   
    10     6    24 ar  
    11     6    28 ar  
    12     6    34 1   
    13     7    28 1   
    14     7    30 1   
    15     7    31 2   
    16     8     9 1   
    17     8    30 1   
    18     8    35 1   
    19     8    36 1   
    20     9    10 1   
    21     9    37 1   
    22     9    38 1   
    23    10    11 1   
    24    10    13 1   
    25    10    39 1   
    26    11    12 1   
    27    11    40 1   
    28    11    41 1   
    29    12    30 1   
    30    12    42 1   
    31    12    43 1   
    32    13    14 ar  
    33    13    19 ar  
    34    14    15 ar  
    35    14    44 1   
    36    15    17 ar  
    37    15    45 1   
    38    16    22 ar  
    39    16    46 1   
    40    17    18 ar  
    41    17    29 1   
    42    18    19 ar  
    43    18    47 1   
    44    19    48 1   
    45    20    21 ar  
    46    20    23 ar  
    47    20    49 1   
    48    21    50 1   
    49    22    23 ar  
    50    22    51 1   
    51    24    25 ar  
    52    25    26 ar  
    53    25    52 1   
    54    26    27 ar  
    55    26    53 1   
    56    27    28 ar  
    57    27    54 1   
@<TRIPOS>SUBSTRUCTURE
     1 EGW         1 TEMP              0 ****  ****    0 ROOT
