@<TRIPOS>MOLECULE
EGX
   46    50     1     0     0
SMALL
abcg2


@<TRIPOS>ATOM
      1 N1         -12.1570   -17.5790    -0.3960 na         1 EGX       0.132800
      2 N3         -10.3720   -19.8160    -3.2990 n7         1 EGX      -0.875400
      3 C4         -13.4150   -10.9150     4.8500 ca         1 EGX      -0.066000
      4 C5         -13.1950   -12.2110     4.3920 ca         1 EGX      -0.134600
      5 C6         -12.7510   -12.4220     3.0860 ca         1 EGX      -0.129600
      6 C7         -13.4110   -13.3570     5.2990 c          1 EGX       0.591300
      7 C8         -13.3120   -14.7260     4.7280 ca         1 EGX      -0.135600
      8 C10        -12.4740   -13.7910     2.5810 c          1 EGX       0.585300
      9 C13        -13.2690   -17.3020     3.7310 ca         1 EGX      -0.100000
     10 C15        -12.7800   -16.5780     1.4500 cc         1 EGX      -0.173000
     11 C17        -13.4340   -16.0600     0.3160 cc         1 EGX       0.272900
     12 C20        -10.3100   -18.3950    -3.5880 c6         1 EGX       0.161800
     13 C21        -11.7380   -20.2610    -3.0580 c6         1 EGX       0.161800
     14 C22        -12.4880   -19.2440    -2.1860 c6         1 EGX      -0.087400
     15 C1         -12.5290   -11.3330     2.2480 ca         1 EGX      -0.071000
     16 C2         -12.7640   -10.0470     2.7050 ca         1 EGX      -0.097000
     17 C3         -13.2060    -9.8380     4.0060 ca         1 EGX      -0.102000
     18 C9         -12.9640   -14.9430     3.3850 ca         1 EGX      -0.119600
     19 C11        -13.5950   -15.7980     5.5660 ca         1 EGX      -0.073000
     20 C12        -13.5500   -17.0880     5.0690 ca         1 EGX      -0.099000
     21 C14        -12.9820   -16.2480     2.8630 ca         1 EGX       0.063000
     22 C16        -11.9700   -17.5680     0.9350 cd         1 EGX      -0.145000
     23 N2         -13.0500   -16.6740    -0.7840 nd         1 EGX      -0.528800
     24 C18        -11.4910   -18.4310    -1.3670 c6         1 EGX       0.112300
     25 C19        -10.5900   -17.6120    -2.2990 c6         1 EGX      -0.087400
     26 O2         -13.6870   -13.1870     6.4680 o          1 EGX      -0.516100
     27 H1          -9.9700   -20.3470    -4.0590 hn         1 EGX       0.416000
     28 H3         -13.7500   -10.7500     5.8650 ha         1 EGX       0.137000
     29 H4         -13.2920   -18.3100     3.3370 ha         1 EGX       0.119000
     30 H5         -14.1760   -15.2770     0.2770 h4         1 EGX       0.038100
     31 H6          -9.3150   -18.1530    -3.9620 h1         1 EGX       0.034950
     32 H7         -11.0180   -18.0890    -4.3730 h1         1 EGX       0.034950
     33 H8         -12.3050   -20.4130    -3.9870 h1         1 EGX       0.034950
     34 H9         -11.7000   -21.2290    -2.5520 h1         1 EGX       0.034950
     35 H10        -13.0730   -18.5610    -2.8050 hc         1 EGX       0.060950
     36 H11        -13.1930   -19.7590    -1.5310 hc         1 EGX       0.060950
     37 H12        -12.1800   -11.4930     1.2370 ha         1 EGX       0.137000
     38 H13        -12.6010    -9.2050     2.0460 ha         1 EGX       0.120000
     39 H14        -13.3840    -8.8320     4.3620 ha         1 EGX       0.120000
     40 H15        -13.8490   -15.6220     6.6020 ha         1 EGX       0.138000
     41 H16        -13.7620   -17.9280     5.7170 ha         1 EGX       0.120000
     42 H17        -11.2760   -18.2360     1.4200 h4         1 EGX       0.155000
     43 H18        -10.8800   -19.1160    -0.7770 h1         1 EGX       0.071700
     44 H19         -9.6610   -17.3680    -1.7800 hc         1 EGX       0.060950
     45 H20        -11.0830   -16.6700    -2.5440 hc         1 EGX       0.060950
     46 O1         -11.8330   -13.9420     1.5640 o          1 EGX      -0.495100
@<TRIPOS>BOND
     1     1    22 1   
     2     1    23 1   
     3     1    24 1   
     4     2    12 1   
     5     2    13 1   
     6     2    27 1   
     7     3     4 ar  
     8     3    17 ar  
     9     3    28 1   
    10     4     5 ar  
    11     4     6 1   
    12     5     8 1   
    13     5    15 ar  
    14     6     7 1   
    15     6    26 2   
    16     7    18 ar  
    17     7    19 ar  
    18     8    18 1   
    19     8    46 2   
    20     9    20 ar  
    21     9    21 ar  
    22     9    29 1   
    23    10    11 1   
    24    10    21 1   
    25    10    22 2   
    26    11    23 2   
    27    11    30 1   
    28    12    25 1   
    29    12    31 1   
    30    12    32 1   
    31    13    14 1   
    32    13    33 1   
    33    13    34 1   
    34    14    24 1   
    35    14    35 1   
    36    14    36 1   
    37    15    16 ar  
    38    15    37 1   
    39    16    17 ar  
    40    16    38 1   
    41    17    39 1   
    42    18    21 ar  
    43    19    20 ar  
    44    19    40 1   
    45    20    41 1   
    46    22    42 1   
    47    24    25 1   
    48    24    43 1   
    49    25    44 1   
    50    25    45 1   
@<TRIPOS>SUBSTRUCTURE
     1 EGX         1 TEMP              0 ****  ****    0 ROOT
