@<TRIPOS>MOLECULE
EGX
   46    50     1     0     0
SMALL
No Charge or Current Charge


@<TRIPOS>ATOM
      1 N1         -12.1240   -17.5110    -0.4480 na         1 EGX       0.132800
      2 N3         -10.6840   -20.2010    -3.3690 n7         1 EGX      -0.875400
      3 C4         -13.7300   -10.8840     4.9210 ca         1 EGX      -0.066000
      4 C5         -13.3080   -12.1520     4.4610 ca         1 EGX      -0.134600
      5 C6         -12.9050   -12.3050     3.1140 ca         1 EGX      -0.129600
      6 C7         -13.2730   -13.3300     5.4000 c          1 EGX       0.591300
      7 C8         -13.0840   -14.7050     4.7960 ca         1 EGX      -0.135600
      8 C10        -12.4100   -13.6370     2.6140 c          1 EGX       0.585300
      9 C13        -12.8580   -17.2960     3.7320 ca         1 EGX      -0.100000
     10 C15        -12.6400   -16.4840     1.4150 cc         1 EGX      -0.173000
     11 C17        -12.9790   -15.7260     0.2760 cc         1 EGX       0.272900
     12 C20        -10.0160   -18.8800    -3.4020 c6         1 EGX       0.161800
     13 C21        -12.1690   -20.1130    -3.3370 c6         1 EGX       0.161800
     14 C22        -12.6910   -18.9700    -2.4230 c6         1 EGX      -0.087400
     15 C1         -12.9230   -11.1860     2.2510 ca         1 EGX      -0.071000
     16 C2         -13.3500    -9.9320     2.7170 ca         1 EGX      -0.097000
     17 C3         -13.7540    -9.7820     4.0520 ca         1 EGX      -0.102000
     18 C9         -12.7770   -14.8720     3.4140 ca         1 EGX      -0.119600
     19 C11        -13.2320   -15.8350     5.6250 ca         1 EGX      -0.073000
     20 C12        -13.0940   -17.1220     5.1000 ca         1 EGX      -0.099000
     21 C14        -12.7280   -16.1910     2.8610 ca         1 EGX       0.063000
     22 C16        -12.0670   -17.6320     0.9440 cd         1 EGX      -0.145000
     23 N2         -12.6970   -16.3150    -0.8680 nd         1 EGX      -0.528800
     24 C18        -11.6140   -18.5330    -1.3970 c6         1 EGX       0.112300
     25 C19        -10.3300   -18.0460    -2.1300 c6         1 EGX      -0.087400
     26 O2         -13.4040   -13.1760     6.6100 o          1 EGX      -0.516100
     27 H1         -10.3990   -20.7540    -4.1900 hn         1 EGX       0.416000
     28 H3         -14.0420   -10.7500     5.9560 ha         1 EGX       0.137000
     29 H4         -12.8290   -18.3110     3.3470 ha         1 EGX       0.119000
     30 H5         -13.4570   -14.7560     0.2470 h4         1 EGX       0.038100
     31 H6          -8.9280   -19.0110    -3.4980 h1         1 EGX       0.034950
     32 H7         -10.3590   -18.3300    -4.2920 h1         1 EGX       0.034950
     33 H8         -12.5510   -19.9540    -4.3570 h1         1 EGX       0.034950
     34 H9         -12.5680   -21.0770    -2.9870 h1         1 EGX       0.034950
     35 H10        -12.9740   -18.1120    -3.0470 hc         1 EGX       0.060950
     36 H11        -13.6050   -19.2960    -1.9090 hc         1 EGX       0.060950
     37 H12        -12.6060   -11.2860     1.2150 ha         1 EGX       0.137000
     38 H13        -13.3640    -9.0780     2.0450 ha         1 EGX       0.120000
     39 H14        -14.0820    -8.8100     4.4150 ha         1 EGX       0.120000
     40 H15        -13.4540   -15.7220     6.6850 ha         1 EGX       0.138000
     41 H16        -13.2090   -17.9890     5.7470 ha         1 EGX       0.120000
     42 H17        -11.6230   -18.4840     1.4460 h4         1 EGX       0.155000
     43 H18        -11.3480   -19.4220    -0.8080 h1         1 EGX       0.071700
     44 H19         -9.4820   -18.0970    -1.4350 hc         1 EGX       0.060950
     45 H20        -10.4250   -16.9910    -2.4200 hc         1 EGX       0.060950
     46 O1         -11.6350   -13.6790     1.6650 o          1 EGX      -0.495100
@<TRIPOS>BOND
     1     1    22 1   
     2     1    23 1   
     3     1    24 1   
     4     2    12 1   
     5     2    13 1   
     6     2    27 1   
     7     3     4 ar  
     8     3    17 ar  
     9     3    28 1   
    10     4     5 ar  
    11     4     6 1   
    12     5     8 1   
    13     5    15 ar  
    14     6     7 1   
    15     6    26 2   
    16     7    18 ar  
    17     7    19 ar  
    18     8    18 1   
    19     8    46 2   
    20     9    20 ar  
    21     9    21 ar  
    22     9    29 1   
    23    10    11 1   
    24    10    21 1   
    25    10    22 2   
    26    11    23 2   
    27    11    30 1   
    28    12    25 1   
    29    12    31 1   
    30    12    32 1   
    31    13    14 1   
    32    13    33 1   
    33    13    34 1   
    34    14    24 1   
    35    14    35 1   
    36    14    36 1   
    37    15    16 ar  
    38    15    37 1   
    39    16    17 ar  
    40    16    38 1   
    41    17    39 1   
    42    18    21 ar  
    43    19    20 ar  
    44    19    40 1   
    45    20    41 1   
    46    22    42 1   
    47    24    25 1   
    48    24    43 1   
    49    25    44 1   
    50    25    45 1   
@<TRIPOS>SUBSTRUCTURE
     1 EGX         1 TEMP              0 ****  ****    0 ROOT
