@<TRIPOS>MOLECULE
EGY
  109   108     1     0     0
SMALL
abcg2


@<TRIPOS>ATOM
      1 O12         -3.6590    -2.9370     0.0040 o          1 EGY      -0.817000
      2 P           -2.3030    -3.5070     0.3140 p5         1 EGY       1.385800
      3 O14         -2.1470    -4.9870     0.4730 o          1 EGY      -0.817000
      4 O13         -1.6820    -2.7170     1.6220 os         1 EGY      -0.577400
      5 C11         -2.4360    -2.7140     2.8100 c3         1 EGY       0.213600
      6 C12         -2.4490    -1.3560     3.4730 c3         1 EGY       0.087600
      7 N           -3.2110    -0.2510     2.7850 n4         1 EGY      -0.485000
      8 C13         -3.2800     0.8910     3.7420 c3         1 EGY       0.072567
      9 C14         -2.5220     0.2180     1.5480 c3         1 EGY       0.072567
     10 C15         -4.5950    -0.6770     2.4420 c3         1 EGY       0.072567
     11 O11         -1.1720    -2.9200    -0.7020 os         1 EGY      -0.584400
     12 C1          -0.8850    -3.6330    -1.8830 c3         1 EGY       0.211600
     13 C2          -0.3740    -2.6800    -2.9570 c3         1 EGY       0.163300
     14 O21          0.5710    -1.7520    -2.4170 os         1 EGY      -0.428100
     15 C21          1.8160    -2.1590    -2.1890 c          1 EGY       0.601100
     16 O22          2.2190    -3.2590    -2.4750 o          1 EGY      -0.495000
     17 C22          2.6320    -1.0900    -1.5170 c3         1 EGY      -0.136400
     18 C23          4.1330    -1.3160    -1.6170 c3         1 EGY      -0.069400
     19 C24          4.9230    -0.2580    -0.8570 c3         1 EGY      -0.074400
     20 C25          6.4290    -0.4440    -0.9810 c3         1 EGY      -0.075400
     21 C26          7.2310     0.5620    -0.1650 c3         1 EGY      -0.073400
     22 C27          8.7380     0.3950    -0.3190 c3         1 EGY      -0.074400
     23 C28          9.5440     1.3660     0.5340 c3         1 EGY      -0.073400
     24 C29         11.0500     1.2110     0.3610 c3         1 EGY      -0.074400
     25 C2A         11.8610     2.1630     1.2310 c3         1 EGY      -0.073400
     26 C2B         13.3670     2.0130     1.0460 c3         1 EGY      -0.075400
     27 C2C         14.1820     2.9540     1.9230 c3         1 EGY      -0.075400
     28 C2D         15.6870     2.8060     1.7310 c3         1 EGY      -0.074400
     29 C2E         16.4960     3.7460     2.6130 c3         1 EGY      -0.088100
     30 C3          -1.4490    -1.8820    -3.6550 c3         1 EGY       0.169600
     31 O31         -2.1680    -1.1060    -2.7040 os         1 EGY      -0.421100
     32 C31         -3.3730    -0.6610    -3.0380 c          1 EGY       0.605100
     33 O32         -3.8530    -0.8050    -4.1360 o          1 EGY      -0.501000
     34 C32         -4.0480     0.0050    -1.8740 c3         1 EGY      -0.149400
     35 C33         -5.4150     0.5840    -2.1970 c3         1 EGY      -0.066400
     36 C34         -6.0620     1.2210    -0.9740 c3         1 EGY      -0.070400
     37 C35         -7.4490     1.7820    -1.2650 c3         1 EGY      -0.079400
     38 C36         -8.1130     2.4150    -0.0500 c3         1 EGY      -0.071400
     39 C37         -9.5010     2.9670    -0.3510 c3         1 EGY      -0.076400
     40 C38        -10.1790     3.5980     0.8580 c3         1 EGY      -0.073400
     41 C39        -11.5680     4.1430     0.5480 c3         1 EGY      -0.076400
     42 C3A        -12.2590     4.7680     1.7540 c3         1 EGY      -0.074400
     43 C3B        -13.6470     5.3010     1.4260 c3         1 EGY      -0.089100
     44 H2          -3.4570    -3.0770     2.6670 h1         1 EGY       0.056700
     45 H3          -1.9760    -3.3820     3.5460 h1         1 EGY       0.056700
     46 H4          -2.9090    -1.4770     4.4540 hx         1 EGY       0.079200
     47 H5          -1.4350    -0.9850     3.6240 hx         1 EGY       0.079200
     48 H6          -3.8210     0.5810     4.6320 hx         1 EGY       0.095478
     49 H7          -2.2720     1.1930     4.0130 hx         1 EGY       0.095478
     50 H8          -3.7960     1.7210     3.2680 hx         1 EGY       0.095478
     51 H9          -3.0350     1.1080     1.1910 hx         1 EGY       0.095478
     52 H10         -1.4900     0.4620     1.7830 hx         1 EGY       0.095478
     53 H11         -2.5590    -0.5510     0.7880 hx         1 EGY       0.095478
     54 H12         -5.0830    -1.0720     3.3290 hx         1 EGY       0.095478
     55 H13         -5.1440     0.1930     2.0880 hx         1 EGY       0.095478
     56 H14         -4.5640    -1.4280     1.6570 hx         1 EGY       0.095478
     57 H15         -0.1290    -4.3980    -1.6870 h1         1 EGY       0.045200
     58 H16         -1.7590    -4.1520    -2.2940 h1         1 EGY       0.045200
     59 H17          0.0960    -3.2890    -3.7350 h1         1 EGY       0.064700
     60 H18          2.3550    -0.1140    -1.9230 hc         1 EGY       0.067700
     61 H19          2.3230    -1.0690    -0.4650 hc         1 EGY       0.067700
     62 H20          4.3870    -2.3040    -1.2260 hc         1 EGY       0.054700
     63 H21          4.4340    -1.3120    -2.6690 hc         1 EGY       0.054700
     64 H22          4.6480     0.7390    -1.2190 hc         1 EGY       0.034200
     65 H23          4.6370    -0.2850     0.2010 hc         1 EGY       0.034200
     66 H24          6.6970    -1.4580    -0.6650 hc         1 EGY       0.040700
     67 H25          6.7170    -0.3700    -2.0360 hc         1 EGY       0.040700
     68 H26          6.9460     1.5790    -0.4590 hc         1 EGY       0.035200
     69 H27          6.9600     0.4650     0.8920 hc         1 EGY       0.035200
     70 H28          9.0170    -0.6320    -0.0570 hc         1 EGY       0.038700
     71 H29          9.0110     0.5230    -1.3720 hc         1 EGY       0.038700
     72 H30          9.2550     2.3940     0.2860 hc         1 EGY       0.035700
     73 H31          9.2830     1.2240     1.5880 hc         1 EGY       0.035700
     74 H32         11.3370     0.1780     0.5910 hc         1 EGY       0.037700
     75 H33         11.3120     1.3700    -0.6910 hc         1 EGY       0.037700
     76 H34         11.5690     3.1950     1.0090 hc         1 EGY       0.036700
     77 H35         11.6070     1.9960     2.2840 hc         1 EGY       0.036700
     78 H36         13.6570     0.9780     1.2600 hc         1 EGY       0.037200
     79 H37         13.6210     2.1870    -0.0060 hc         1 EGY       0.037200
     80 H38         13.8900     3.9890     1.7140 hc         1 EGY       0.036700
     81 H39         13.9320     2.7760     2.9750 hc         1 EGY       0.036700
     82 H40         15.9770     1.7710     1.9370 hc         1 EGY       0.036700
     83 H41         15.9350     2.9860     0.6800 hc         1 EGY       0.036700
     84 H42         16.2550     4.7900     2.4040 hc         1 EGY       0.031367
     85 H43         16.2940     3.5680     3.6710 hc         1 EGY       0.031367
     86 H44         17.5680     3.6190     2.4570 hc         1 EGY       0.031367
     87 H45         -1.0030    -1.2330    -4.4130 h1         1 EGY       0.055700
     88 H46         -2.1120    -2.5840    -4.1660 h1         1 EGY       0.055700
     89 H47         -4.1200    -0.7500    -1.0860 hc         1 EGY       0.076700
     90 H48         -3.3850     0.7840    -1.4840 hc         1 EGY       0.076700
     91 H49         -5.3280     1.3290    -2.9920 hc         1 EGY       0.058200
     92 H50         -6.0690    -0.2040    -2.5810 hc         1 EGY       0.058200
     93 H51         -6.1350     0.4800    -0.1690 hc         1 EGY       0.022200
     94 H52         -5.4200     2.0240    -0.5930 hc         1 EGY       0.022200
     95 H53         -7.3750     2.5240    -2.0670 hc         1 EGY       0.046200
     96 H54         -8.0880     0.9790    -1.6510 hc         1 EGY       0.046200
     97 H55         -8.1840     1.6740     0.7540 hc         1 EGY       0.028700
     98 H56         -7.4780     3.2210     0.3350 hc         1 EGY       0.028700
     99 H57         -9.4270     3.7090    -1.1540 hc         1 EGY       0.041700
    100 H58        -10.1330     2.1610    -0.7410 hc         1 EGY       0.041700
    101 H59        -10.2530     2.8570     1.6620 hc         1 EGY       0.033700
    102 H60         -9.5510     4.4070     1.2480 hc         1 EGY       0.033700
    103 H61        -11.4950     4.8870    -0.2530 hc         1 EGY       0.039200
    104 H62        -12.1940     3.3340     0.1520 hc         1 EGY       0.039200
    105 H63        -12.3320     4.0260     2.5540 hc         1 EGY       0.035200
    106 H64        -11.6370     5.5780     2.1470 hc         1 EGY       0.035200
    107 H65        -13.6000     6.0810     0.6640 hc         1 EGY       0.032700
    108 H66        -14.2920     4.5080     1.0440 hc         1 EGY       0.032700
    109 H67        -14.1330     5.7280     2.3040 hc         1 EGY       0.032700
@<TRIPOS>BOND
     1     1     2 1   
     2     2     3 1   
     3     2     4 1   
     4     2    11 1   
     5     4     5 1   
     6     5     6 1   
     7     5    44 1   
     8     5    45 1   
     9     6     7 1   
    10     6    46 1   
    11     6    47 1   
    12     7     8 1   
    13     7     9 1   
    14     7    10 1   
    15     8    48 1   
    16     8    49 1   
    17     8    50 1   
    18     9    51 1   
    19     9    52 1   
    20     9    53 1   
    21    10    54 1   
    22    10    55 1   
    23    10    56 1   
    24    11    12 1   
    25    12    13 1   
    26    12    57 1   
    27    12    58 1   
    28    13    14 1   
    29    13    30 1   
    30    13    59 1   
    31    14    15 1   
    32    15    16 2   
    33    15    17 1   
    34    17    18 1   
    35    17    60 1   
    36    17    61 1   
    37    18    19 1   
    38    18    62 1   
    39    18    63 1   
    40    19    20 1   
    41    19    64 1   
    42    19    65 1   
    43    20    21 1   
    44    20    66 1   
    45    20    67 1   
    46    21    22 1   
    47    21    68 1   
    48    21    69 1   
    49    22    23 1   
    50    22    70 1   
    51    22    71 1   
    52    23    24 1   
    53    23    72 1   
    54    23    73 1   
    55    24    25 1   
    56    24    74 1   
    57    24    75 1   
    58    25    26 1   
    59    25    76 1   
    60    25    77 1   
    61    26    27 1   
    62    26    78 1   
    63    26    79 1   
    64    27    28 1   
    65    27    80 1   
    66    27    81 1   
    67    28    29 1   
    68    28    82 1   
    69    28    83 1   
    70    29    84 1   
    71    29    85 1   
    72    29    86 1   
    73    30    31 1   
    74    30    87 1   
    75    30    88 1   
    76    31    32 1   
    77    32    33 2   
    78    32    34 1   
    79    34    35 1   
    80    34    89 1   
    81    34    90 1   
    82    35    36 1   
    83    35    91 1   
    84    35    92 1   
    85    36    37 1   
    86    36    93 1   
    87    36    94 1   
    88    37    38 1   
    89    37    95 1   
    90    37    96 1   
    91    38    39 1   
    92    38    97 1   
    93    38    98 1   
    94    39    40 1   
    95    39    99 1   
    96    39   100 1   
    97    40    41 1   
    98    40   101 1   
    99    40   102 1   
   100    41    42 1   
   101    41   103 1   
   102    41   104 1   
   103    42    43 1   
   104    42   105 1   
   105    42   106 1   
   106    43   107 1   
   107    43   108 1   
   108    43   109 1   
@<TRIPOS>SUBSTRUCTURE
     1 EGY         1 TEMP              0 ****  ****    0 ROOT
