@<TRIPOS>MOLECULE
EGY
  109   108     1     0     0
SMALL
No Charge or Current Charge


@<TRIPOS>ATOM
      1 O12         -4.8750    -2.1470    -0.2070 o          1 EGY      -0.817000
      2 P           -3.8070    -3.1350    -0.5250 p5         1 EGY       1.385800
      3 O14         -4.3100    -4.5390    -0.4760 o          1 EGY      -0.817000
      4 O13         -2.5040    -2.9270     0.4020 os         1 EGY      -0.577400
      5 C11         -2.6120    -2.3250     1.7010 c3         1 EGY       0.213600
      6 C12         -1.7450    -1.0410     1.7690 c3         1 EGY       0.087600
      7 N           -2.1220     0.2190     0.9560 n4         1 EGY      -0.485000
      8 C13         -1.1730     1.3550     1.3560 c3         1 EGY       0.072567
      9 C14         -1.9720    -0.0250    -0.5470 c3         1 EGY       0.072567
     10 C15         -3.5630     0.6470     1.2670 c3         1 EGY       0.072567
     11 O11         -3.1450    -2.7730    -1.9460 os         1 EGY      -0.584400
     12 C1          -2.2860    -3.7330    -2.5820 c3         1 EGY       0.211600
     13 C2          -0.9980    -3.0520    -3.1480 c3         1 EGY       0.163300
     14 O21         -0.2220    -2.4240    -2.0940 os         1 EGY      -0.428100
     15 C21          0.4010    -3.2120    -1.1620 c          1 EGY       0.601100
     16 O22          0.4640    -4.4330    -1.2140 o          1 EGY      -0.495000
     17 C22          1.1810    -2.3730    -0.1470 c3         1 EGY      -0.136400
     18 C23          2.6330    -2.1240    -0.6150 c3         1 EGY      -0.069400
     19 C24          3.4390    -1.2490     0.3690 c3         1 EGY      -0.074400
     20 C25          4.8890    -0.9940    -0.0970 c3         1 EGY      -0.075400
     21 C26          5.6940    -0.1160     0.8870 c3         1 EGY      -0.073400
     22 C27          7.1430     0.1410     0.4200 c3         1 EGY      -0.074400
     23 C28          7.9480     1.0190     1.4030 c3         1 EGY      -0.073400
     24 C29          9.3970     1.2780     0.9350 c3         1 EGY      -0.074400
     25 C2A         10.2020     2.1560     1.9180 c3         1 EGY      -0.073400
     26 C2B         11.6510     2.4150     1.4500 c3         1 EGY      -0.075400
     27 C2C         12.4550     3.2930     2.4330 c3         1 EGY      -0.075400
     28 C2D         13.9040     3.5530     1.9650 c3         1 EGY      -0.074400
     29 C2E         14.7070     4.4300     2.9450 c3         1 EGY      -0.088100
     30 C3          -1.2650    -2.0150    -4.2730 c3         1 EGY       0.169600
     31 O31         -1.8090    -0.7980    -3.7210 os         1 EGY      -0.421100
     32 C31         -2.3670     0.1130    -4.5770 c          1 EGY       0.605100
     33 O32         -2.5890    -0.0960    -5.7630 o          1 EGY      -0.501000
     34 C32         -2.8870     1.3360    -3.8220 c3         1 EGY      -0.149400
     35 C33         -4.2230     1.0330    -3.1000 c3         1 EGY      -0.066400
     36 C34         -4.6490     2.1550    -2.1290 c3         1 EGY      -0.070400
     37 C35         -5.9250     1.8090    -1.3320 c3         1 EGY      -0.079400
     38 C36         -6.3180     2.9040    -0.3170 c3         1 EGY      -0.071400
     39 C37         -7.5680     2.5380     0.5120 c3         1 EGY      -0.076400
     40 C38         -7.9560     3.6290     1.5330 c3         1 EGY      -0.073400
     41 C39         -9.2050     3.2620     2.3640 c3         1 EGY      -0.076400
     42 C3A         -9.5930     4.3530     3.3860 c3         1 EGY      -0.074400
     43 C3B        -10.8390     3.9870     4.2160 c3         1 EGY      -0.089100
     44 H2          -3.6490    -2.0810     1.9660 h1         1 EGY       0.056700
     45 H3          -2.2450    -3.0270     2.4600 h1         1 EGY       0.056700
     46 H4          -1.7270    -0.7310     2.8150 hx         1 EGY       0.079200
     47 H5          -0.7250    -1.3110     1.4960 hx         1 EGY       0.079200
     48 H6          -1.2750     1.5500     2.4260 hx         1 EGY       0.095478
     49 H7          -0.1450     1.0620     1.1330 hx         1 EGY       0.095478
     50 H8          -1.4290     2.2550     0.7930 hx         1 EGY       0.095478
     51 H9          -2.1410     0.9130    -1.0750 hx         1 EGY       0.095478
     52 H10         -0.9690    -0.3930    -0.7650 hx         1 EGY       0.095478
     53 H11         -2.7090    -0.7570    -0.8720 hx         1 EGY       0.095478
     54 H12         -3.6650     0.8190     2.3400 hx         1 EGY       0.095478
     55 H13         -3.7900     1.5660     0.7230 hx         1 EGY       0.095478
     56 H14         -4.2500    -0.1410     0.9530 hx         1 EGY       0.095478
     57 H15         -1.9960    -4.5320    -1.8890 h1         1 EGY       0.045200
     58 H16         -2.8190    -4.2130    -3.4130 h1         1 EGY       0.045200
     59 H17         -0.4000    -3.8480    -3.6120 h1         1 EGY       0.064700
     60 H18          0.7010    -1.3950    -0.0460 hc         1 EGY       0.067700
     61 H19          1.1980    -2.8970     0.8160 hc         1 EGY       0.067700
     62 H20          3.1420    -3.0890    -0.7430 hc         1 EGY       0.054700
     63 H21          2.6170    -1.6390    -1.5990 hc         1 EGY       0.054700
     64 H22          2.9280    -0.2860     0.4970 hc         1 EGY       0.034200
     65 H23          3.4570    -1.7350     1.3530 hc         1 EGY       0.034200
     66 H24          5.4010    -1.9560    -0.2230 hc         1 EGY       0.040700
     67 H25          4.8710    -0.5080    -1.0810 hc         1 EGY       0.040700
     68 H26          5.1800     0.8460     1.0140 hc         1 EGY       0.035200
     69 H27          5.7130    -0.6020     1.8700 hc         1 EGY       0.035200
     70 H28          7.6560    -0.8200     0.2920 hc         1 EGY       0.038700
     71 H29          7.1240     0.6270    -0.5640 hc         1 EGY       0.038700
     72 H30          7.4340     1.9800     1.5310 hc         1 EGY       0.035700
     73 H31          7.9680     0.5330     2.3860 hc         1 EGY       0.035700
     74 H32          9.9110     0.3170     0.8070 hc         1 EGY       0.037700
     75 H33          9.3770     1.7640    -0.0480 hc         1 EGY       0.037700
     76 H34          9.6880     3.1160     2.0470 hc         1 EGY       0.036700
     77 H35         10.2230     1.6690     2.9010 hc         1 EGY       0.036700
     78 H36         12.1650     1.4540     1.3220 hc         1 EGY       0.037200
     79 H37         11.6300     2.9010     0.4670 hc         1 EGY       0.037200
     80 H38         11.9410     4.2540     2.5610 hc         1 EGY       0.036700
     81 H39         12.4770     2.8070     3.4160 hc         1 EGY       0.036700
     82 H40         14.4220     2.5940     1.8370 hc         1 EGY       0.036700
     83 H41         13.8870     4.0410     0.9820 hc         1 EGY       0.036700
     84 H42         14.2320     5.4110     3.0670 hc         1 EGY       0.031367
     85 H43         14.7730     3.9510     3.9290 hc         1 EGY       0.031367
     86 H44         15.7260     4.5860     2.5710 hc         1 EGY       0.031367
     87 H45         -0.3270    -1.8040    -4.8020 h1         1 EGY       0.055700
     88 H46         -1.9610    -2.4650    -4.9930 h1         1 EGY       0.055700
     89 H47         -2.1520     1.5930    -3.0520 hc         1 EGY       0.076700
     90 H48         -3.0260     2.1710    -4.5180 hc         1 EGY       0.076700
     91 H49         -5.0120     0.8730    -3.8460 hc         1 EGY       0.058200
     92 H50         -4.1280     0.0950    -2.5380 hc         1 EGY       0.058200
     93 H51         -3.8320     2.3530    -1.4240 hc         1 EGY       0.022200
     94 H52         -4.8140     3.0800    -2.6950 hc         1 EGY       0.022200
     95 H53         -6.7550     1.6480    -2.0310 hc         1 EGY       0.046200
     96 H54         -5.7710     0.8630    -0.7980 hc         1 EGY       0.046200
     97 H55         -5.4770     3.0860     0.3630 hc         1 EGY       0.028700
     98 H56         -6.5030     3.8430    -0.8550 hc         1 EGY       0.028700
     99 H57         -8.4120     2.3620    -0.1670 hc         1 EGY       0.041700
    100 H58         -7.3830     1.5960     1.0440 hc         1 EGY       0.041700
    101 H59         -7.1120     3.8060     2.2100 hc         1 EGY       0.033700
    102 H60         -8.1420     4.5710     1.0000 hc         1 EGY       0.033700
    103 H61        -10.0500     3.0860     1.6870 hc         1 EGY       0.039200
    104 H62         -9.0190     2.3200     2.8970 hc         1 EGY       0.039200
    105 H63         -8.7510     4.5310     4.0660 hc         1 EGY       0.035200
    106 H64         -9.7820     5.2960     2.8570 hc         1 EGY       0.035200
    107 H65        -11.7090     3.8370     3.5650 hc         1 EGY       0.032700
    108 H66        -10.6690     3.0650     4.7850 hc         1 EGY       0.032700
    109 H67        -11.0750     4.7900     4.9250 hc         1 EGY       0.032700
@<TRIPOS>BOND
     1     1     2 1   
     2     2     3 1   
     3     2     4 1   
     4     2    11 1   
     5     4     5 1   
     6     5     6 1   
     7     5    44 1   
     8     5    45 1   
     9     6     7 1   
    10     6    46 1   
    11     6    47 1   
    12     7     8 1   
    13     7     9 1   
    14     7    10 1   
    15     8    48 1   
    16     8    49 1   
    17     8    50 1   
    18     9    51 1   
    19     9    52 1   
    20     9    53 1   
    21    10    54 1   
    22    10    55 1   
    23    10    56 1   
    24    11    12 1   
    25    12    13 1   
    26    12    57 1   
    27    12    58 1   
    28    13    14 1   
    29    13    30 1   
    30    13    59 1   
    31    14    15 1   
    32    15    16 2   
    33    15    17 1   
    34    17    18 1   
    35    17    60 1   
    36    17    61 1   
    37    18    19 1   
    38    18    62 1   
    39    18    63 1   
    40    19    20 1   
    41    19    64 1   
    42    19    65 1   
    43    20    21 1   
    44    20    66 1   
    45    20    67 1   
    46    21    22 1   
    47    21    68 1   
    48    21    69 1   
    49    22    23 1   
    50    22    70 1   
    51    22    71 1   
    52    23    24 1   
    53    23    72 1   
    54    23    73 1   
    55    24    25 1   
    56    24    74 1   
    57    24    75 1   
    58    25    26 1   
    59    25    76 1   
    60    25    77 1   
    61    26    27 1   
    62    26    78 1   
    63    26    79 1   
    64    27    28 1   
    65    27    80 1   
    66    27    81 1   
    67    28    29 1   
    68    28    82 1   
    69    28    83 1   
    70    29    84 1   
    71    29    85 1   
    72    29    86 1   
    73    30    31 1   
    74    30    87 1   
    75    30    88 1   
    76    31    32 1   
    77    32    33 2   
    78    32    34 1   
    79    34    35 1   
    80    34    89 1   
    81    34    90 1   
    82    35    36 1   
    83    35    91 1   
    84    35    92 1   
    85    36    37 1   
    86    36    93 1   
    87    36    94 1   
    88    37    38 1   
    89    37    95 1   
    90    37    96 1   
    91    38    39 1   
    92    38    97 1   
    93    38    98 1   
    94    39    40 1   
    95    39    99 1   
    96    39   100 1   
    97    40    41 1   
    98    40   101 1   
    99    40   102 1   
   100    41    42 1   
   101    41   103 1   
   102    41   104 1   
   103    42    43 1   
   104    42   105 1   
   105    42   106 1   
   106    43   107 1   
   107    43   108 1   
   108    43   109 1   
@<TRIPOS>SUBSTRUCTURE
     1 EGY         1 TEMP              0 ****  ****    0 ROOT
