@<TRIPOS>MOLECULE
EGZ
   57    60     1     0     0
SMALL
abcg2


@<TRIPOS>ATOM
      1 C01         -5.0610     0.7080     0.0970 c6         1 EGZ      -0.018200
      2 C02         -5.7000    -0.5170    -0.5400 c6         1 EGZ      -0.057300
      3 C04         -4.0530    -1.9510     0.5010 c          1 EGZ       0.607200
      4 C06         -3.1410    -0.7930     0.4820 ce         1 EGZ      -0.178600
      5 C07         -3.6090     0.4570     0.3350 c2         1 EGZ       0.160900
      6 C09         -1.5600     1.5070     0.8930 c6         1 EGZ       0.408300
      7 C10         -0.7650     0.3770     0.2470 c6         1 EGZ      -0.041700
      8 C12          0.6750     0.4750     0.7190 c6         1 EGZ       0.161300
      9 C13          1.2390     1.8660     0.3890 c6         1 EGZ       0.122300
     10 C14          0.3030     2.9040     1.0080 c6         1 EGZ       0.183300
     11 C16          0.7340     4.3220     0.7020 c3         1 EGZ       0.171600
     12 C20          2.7090    -0.7060     0.4310 c6         1 EGZ       0.362300
     13 C21          3.1390    -2.1690     0.3750 c6         1 EGZ       0.115300
     14 C22          4.6450    -2.2330     0.6190 c6         1 EGZ       0.139300
     15 C23          5.3950    -1.3340    -0.3650 c6         1 EGZ       0.150300
     16 C24          4.8090     0.0700    -0.2880 c6         1 EGZ       0.181300
     17 C26          5.4220     1.0370    -1.2770 c3         1 EGZ       0.169600
     18 C31         -5.3120    -0.6340    -2.0440 c          1 EGZ       0.703000
     19 N03         -5.3460    -1.6910     0.2290 ns         1 EGZ      -0.447900
     20 O05         -3.6290    -3.0580     0.8170 o          1 EGZ      -0.607000
     21 O15         -1.0280     2.7380     0.5490 os         1 EGZ      -0.415000
     22 O17         -0.0380     5.2010     1.4810 oh         1 EGZ      -0.712000
     23 O18          1.3590     2.0830    -0.9880 oh         1 EGZ      -0.695000
     24 O19          1.3650    -0.6020     0.1250 os         1 EGZ      -0.414000
     25 O25          3.4150     0.0360    -0.5280 os         1 EGZ      -0.471000
     26 O27          4.9010     2.3180    -1.0120 oh         1 EGZ      -0.723000
     27 O28          5.2910    -1.7980    -1.6870 oh         1 EGZ      -0.707000
     28 O29          5.1520    -3.5350     0.4880 oh         1 EGZ      -0.672000
     29 O30          2.5090    -2.9230     1.3790 oh         1 EGZ      -0.735000
     30 O32         -4.8170    -1.7060    -2.4250 o          1 EGZ      -0.709000
     31 O33         -5.5610     0.3780    -2.7270 o          1 EGZ      -0.709000
     32 S11         -1.4540    -1.2240     0.7270 ss         1 EGZ      -0.229600
     33 H012        -5.1930     1.5690    -0.5580 hc         1 EGZ       0.066200
     34 H011        -5.5390     0.9530     1.0510 hc         1 EGZ       0.066200
     35 H021        -6.7850    -0.4050    -0.4840 h1         1 EGZ       0.049700
     36 H3          -1.5690     1.3700     1.9870 h2         1 EGZ       0.037700
     37 H101        -0.8100     0.4880    -0.8410 h1         1 EGZ       0.134700
     38 H121         0.7020     0.3700     1.8160 h1         1 EGZ       0.039700
     39 H131         2.2060     1.9800     0.8970 h1         1 EGZ       0.031700
     40 H141         0.3380     2.7530     2.1010 h1         1 EGZ       0.040700
     41 H162         1.8040     4.4030     0.9330 h1         1 EGZ       0.035700
     42 H161         0.6210     4.5140    -0.3700 h1         1 EGZ       0.035700
     43 H201         2.9140    -0.3100     1.4440 h2         1 EGZ       0.025700
     44 H211         2.9150    -2.5600    -0.6270 h1         1 EGZ       0.084700
     45 H221         4.8350    -1.8390     1.6310 h1         1 EGZ       0.040700
     46 H231         6.4450    -1.2740    -0.0420 h1         1 EGZ       0.041700
     47 H241         5.0050     0.4470     0.7290 h1         1 EGZ       0.043700
     48 H261         6.5130     1.0030    -1.1530 h1         1 EGZ       0.040200
     49 H262         5.2020     0.7130    -2.3000 h1         1 EGZ       0.040200
     50 H031        -5.9290    -2.5060     0.1050 hn         1 EGZ       0.302500
     51 H171         0.1870     6.1010     1.2300 ho         1 EGZ       0.498000
     52 H181         2.1830     1.6690    -1.2690 ho         1 EGZ       0.527000
     53 H271         5.1210     2.8940    -1.7500 ho         1 EGZ       0.508000
     54 H281         5.5920    -2.7130    -1.7120 ho         1 EGZ       0.522000
     55 H291         4.6460    -4.1250     1.0570 ho         1 EGZ       0.472000
     56 H301         1.6140    -3.1350     1.0950 ho         1 EGZ       0.542000
     57 O08         -2.8790     1.5780     0.4210 os         1 EGZ      -0.321100
@<TRIPOS>BOND
     1     1     2 1   
     2     1     5 1   
     3     1    33 1   
     4     1    34 1   
     5     2    18 1   
     6     2    19 1   
     7     2    35 1   
     8     3     4 1   
     9     3    19 1   
    10     3    20 2   
    11     4     5 2   
    12     4    32 1   
    13     5    57 1   
    14     6     7 1   
    15     6    21 1   
    16     6    36 1   
    17     6    57 1   
    18     7     8 1   
    19     7    32 1   
    20     7    37 1   
    21     8     9 1   
    22     8    24 1   
    23     8    38 1   
    24     9    10 1   
    25     9    23 1   
    26     9    39 1   
    27    10    11 1   
    28    10    21 1   
    29    10    40 1   
    30    11    22 1   
    31    11    41 1   
    32    11    42 1   
    33    12    13 1   
    34    12    24 1   
    35    12    25 1   
    36    12    43 1   
    37    13    14 1   
    38    13    29 1   
    39    13    44 1   
    40    14    15 1   
    41    14    28 1   
    42    14    45 1   
    43    15    16 1   
    44    15    27 1   
    45    15    46 1   
    46    16    17 1   
    47    16    25 1   
    48    16    47 1   
    49    17    26 1   
    50    17    48 1   
    51    17    49 1   
    52    18    30 1   
    53    18    31 1   
    54    19    50 1   
    55    22    51 1   
    56    23    52 1   
    57    26    53 1   
    58    27    54 1   
    59    28    55 1   
    60    29    56 1   
@<TRIPOS>SUBSTRUCTURE
     1 EGZ         1 TEMP              0 ****  ****    0 ROOT
