@<TRIPOS>MOLECULE
EGZ
   57    60     1     0     0
SMALL
No Charge or Current Charge


@<TRIPOS>ATOM
      1 C01         -5.2160     0.6750     0.0980 c6         1 EGZ      -0.018200
      2 C02         -5.8940    -0.5530    -0.5460 c6         1 EGZ      -0.057300
      3 C04         -4.2060    -2.0150     0.6600 c          1 EGZ       0.607200
      4 C06         -3.2960    -0.8140     0.7140 ce         1 EGZ      -0.178600
      5 C07         -3.7500     0.4300     0.4160 c2         1 EGZ       0.160900
      6 C09         -1.6300     1.5820     0.8870 c6         1 EGZ       0.408300
      7 C10         -0.8150     0.3610     0.4040 c6         1 EGZ      -0.041700
      8 C12          0.6870     0.4700     0.7950 c6         1 EGZ       0.161300
      9 C13          1.2730     1.8750     0.4280 c6         1 EGZ       0.122300
     10 C14          0.3230     2.9920     0.9620 c6         1 EGZ       0.183300
     11 C16          0.8110     4.4320     0.5940 c3         1 EGZ       0.171600
     12 C20          2.7930    -0.7490     0.4370 c6         1 EGZ       0.362300
     13 C21          3.2400    -2.2300     0.2220 c6         1 EGZ       0.115300
     14 C22          4.7700    -2.3470     0.4990 c6         1 EGZ       0.139300
     15 C23          5.5730    -1.3280    -0.3700 c6         1 EGZ       0.150300
     16 C24          4.9680     0.1030    -0.1660 c6         1 EGZ       0.181300
     17 C26          5.6590     1.1870    -1.0560 c3         1 EGZ       0.169600
     18 C31         -5.6840    -0.5630    -2.0960 c          1 EGZ       0.703000
     19 N03         -5.4560    -1.8040     0.1240 ns         1 EGZ      -0.447900
     20 O05         -3.8890    -3.1310     1.0480 o          1 EGZ      -0.607000
     21 O15         -1.0120     2.8020     0.4430 os         1 EGZ      -0.415000
     22 O17         -0.0360     5.4730     1.1260 oh         1 EGZ      -0.712000
     23 O18          1.5080     1.9570    -0.9910 oh         1 EGZ      -0.695000
     24 O19          1.3960    -0.6090     0.1320 os         1 EGZ      -0.414000
     25 O25          3.5420     0.1080    -0.4460 os         1 EGZ      -0.471000
     26 O27          5.1320     2.5150    -0.8470 oh         1 EGZ      -0.723000
     27 O28          5.5350    -1.7590    -1.7460 oh         1 EGZ      -0.707000
     28 O29          5.2110    -3.6920     0.2400 oh         1 EGZ      -0.672000
     29 O30          2.4960    -3.1620     1.0480 oh         1 EGZ      -0.735000
     30 O32         -4.7520    -1.2250    -2.5320 o          1 EGZ      -0.709000
     31 O33         -6.6770    -0.3420    -2.7750 o          1 EGZ      -0.709000
     32 S11         -1.5730    -1.1920     1.0510 ss         1 EGZ      -0.229600
     33 H012        -5.3310     1.5570    -0.5470 hc         1 EGZ       0.066200
     34 H011        -5.7310     0.9170     1.0380 hc         1 EGZ       0.066200
     35 H021        -6.9780    -0.4600    -0.3880 h1         1 EGZ       0.049700
     36 H3          -1.6710     1.5740     1.9870 h2         1 EGZ       0.037700
     37 H101        -0.8860     0.3320    -0.6910 h1         1 EGZ       0.134700
     38 H121         0.7740     0.3280     1.8830 h1         1 EGZ       0.039700
     39 H131         2.2320     1.9910     0.9550 h1         1 EGZ       0.031700
     40 H141         0.2830     2.9270     2.0600 h1         1 EGZ       0.040700
     41 H162         1.8340     4.5510     0.9740 h1         1 EGZ       0.035700
     42 H161         0.8590     4.5120    -0.5000 h1         1 EGZ       0.035700
     43 H201         2.9730    -0.4620     1.4840 h2         1 EGZ       0.025700
     44 H211         3.0660    -2.4600    -0.8410 h1         1 EGZ       0.084700
     45 H221         4.9440    -2.1010     1.5580 h1         1 EGZ       0.040700
     46 H231         6.6140    -1.3170    -0.0150 h1         1 EGZ       0.041700
     47 H241         5.1150     0.3990     0.8840 h1         1 EGZ       0.043700
     48 H261         6.7360     1.1710    -0.8350 h1         1 EGZ       0.040200
     49 H262         5.5390     0.8980    -2.1090 h1         1 EGZ       0.040200
     50 H031        -6.0560    -2.6190     0.0740 hn         1 EGZ       0.302500
     51 H171         0.3030     6.3280     0.7710 ho         1 EGZ       0.498000
     52 H181         2.2310     1.2950    -1.1470 ho         1 EGZ       0.527000
     53 H271         5.5810     3.1080    -1.4940 ho         1 EGZ       0.508000
     54 H281         5.5950    -2.7440    -1.6890 ho         1 EGZ       0.522000
     55 H291         4.5070    -4.2640     0.6290 ho         1 EGZ       0.472000
     56 H301         1.5410    -2.9340     0.9300 ho         1 EGZ       0.542000
     57 O08         -2.9760     1.5660     0.3730 os         1 EGZ      -0.321100
@<TRIPOS>BOND
     1     1     2 1   
     2     1     5 1   
     3     1    33 1   
     4     1    34 1   
     5     2    18 1   
     6     2    19 1   
     7     2    35 1   
     8     3     4 1   
     9     3    19 1   
    10     3    20 2   
    11     4     5 2   
    12     4    32 1   
    13     5    57 1   
    14     6     7 1   
    15     6    21 1   
    16     6    36 1   
    17     6    57 1   
    18     7     8 1   
    19     7    32 1   
    20     7    37 1   
    21     8     9 1   
    22     8    24 1   
    23     8    38 1   
    24     9    10 1   
    25     9    23 1   
    26     9    39 1   
    27    10    11 1   
    28    10    21 1   
    29    10    40 1   
    30    11    22 1   
    31    11    41 1   
    32    11    42 1   
    33    12    13 1   
    34    12    24 1   
    35    12    25 1   
    36    12    43 1   
    37    13    14 1   
    38    13    29 1   
    39    13    44 1   
    40    14    15 1   
    41    14    28 1   
    42    14    45 1   
    43    15    16 1   
    44    15    27 1   
    45    15    46 1   
    46    16    17 1   
    47    16    25 1   
    48    16    47 1   
    49    17    26 1   
    50    17    48 1   
    51    17    49 1   
    52    18    30 1   
    53    18    31 1   
    54    19    50 1   
    55    22    51 1   
    56    23    52 1   
    57    26    53 1   
    58    27    54 1   
    59    28    55 1   
    60    29    56 1   
@<TRIPOS>SUBSTRUCTURE
     1 EGZ         1 TEMP              0 ****  ****    0 ROOT
