@<TRIPOS>MOLECULE
EH0
   61    64     1     0     0
SMALL
No Charge or Current Charge


@<TRIPOS>ATOM
      1 C10         10.8110   -10.9820    30.0880 cc         1 EH0       0.249500
      2 C15         10.6570   -13.3030    29.0760 ca         1 EH0       0.034000
      3 C17          9.0660   -15.0620    29.7040 ca         1 EH0       0.168000
      4 C20         10.8510   -13.9530    27.8450 ca         1 EH0      -0.147000
      5 C22          7.6950   -17.6190    28.8930 c3         1 EH0       0.154600
      6 C28         16.1260   -10.2060    29.6620 ca         1 EH0      -0.146300
      7 C01          9.0320   -10.4180    31.7450 ca         1 EH0       0.222100
      8 C02          7.6820   -10.2540    32.0820 ca         1 EH0      -0.321000
      9 C03          6.6870   -10.4730    31.1190 ca         1 EH0       0.205100
     10 C04          7.0450   -10.8550    29.8090 ca         1 EH0       0.033000
     11 C05          8.3990   -11.0150    29.4750 ca         1 EH0       0.005000
     12 C06          9.4030   -10.8050    30.4440 ca         1 EH0      -0.213500
     13 Cl9          5.8170   -11.1400    28.5730 cl         1 EH0      -0.165000
     14 C11         11.3360   -12.0220    29.3740 cd         1 EH0      -0.137000
     15 C12         12.7100   -11.6490    29.1730 cd         1 EH0       0.227500
     16 N13         12.9370   -10.4130    29.6170 nc         1 EH0      -0.312300
     17 O14         11.7080    -9.9620    30.1940 os         1 EH0      -0.043700
     18 C16          9.7480   -13.8680    29.9930 ca         1 EH0      -0.147000
     19 C18          9.2740   -15.7270    28.4630 ca         1 EH0       0.052100
     20 C19         10.1750   -15.1460    27.5470 ca         1 EH0       0.168000
     21 O21          8.6460   -16.9100    28.0810 os         1 EH0      -0.342100
     22 C23          7.2430   -18.8620    28.1030 c3         1 EH0      -0.058400
     23 N25         15.0790   -12.0400    28.3270 ns         1 EH0      -0.482900
     24 O26         13.6720   -13.7460    28.4330 o          1 EH0      -0.593100
     25 C27         15.5590   -10.6540    28.3160 c3         1 EH0       0.167300
     26 C29         17.0010   -11.0370    30.3900 ca         1 EH0      -0.126000
     27 C30         17.5290   -10.6140    31.6220 ca         1 EH0      -0.090000
     28 C31         17.1990    -9.3460    32.1550 ca         1 EH0      -0.128600
     29 C32         16.3270    -8.5140    31.4140 ca         1 EH0      -0.090000
     30 C33         15.8010    -8.9390    30.1820 ca         1 EH0      -0.126000
     31 C34         17.7700    -8.8870    33.4890 c          1 EH0       0.713600
     32 O35         17.4640    -7.7790    33.9080 o          1 EH0      -0.723000
     33 O36         18.5180    -9.6400    34.0970 o          1 EH0      -0.723000
     34 F37          8.2220   -15.5370    30.6470 f          1 EH0      -0.163500
     35 C38          6.2080   -19.7260    28.8660 c3         1 EH0      -0.208400
     36 C39          5.8060   -20.9440    28.0160 c          1 EH0       0.721000
     37 O40          4.8730   -20.8220    27.2380 o          1 EH0      -0.740000
     38 F41         10.3910   -15.7330    26.3460 f          1 EH0      -0.163500
     39 O42          6.4730   -21.9630    28.1180 o          1 EH0      -0.740000
     40 H1          11.5060   -13.5210    27.0940 ha         1 EH0       0.133500
     41 H2           6.8230   -16.9890    29.1090 h1         1 EH0       0.023700
     42 H3           8.1530   -17.9370    29.8390 h1         1 EH0       0.023700
     43 H4           7.4050    -9.9610    33.0920 ha         1 EH0       0.114000
     44 H5           8.6650   -11.3040    28.4610 ha         1 EH0       0.149000
     45 H6           9.5220    -9.9580    33.5280 ho         1 EH0       0.467000
     46 H7           5.3480   -10.0470    32.4120 ho         1 EH0       0.467000
     47 H8           9.5770   -13.3960    30.9560 ha         1 EH0       0.133500
     48 H9           8.1230   -19.4740    27.8680 hc         1 EH0       0.055700
     49 H10          6.8120   -18.5390    27.1470 hc         1 EH0       0.055700
     50 H11         15.7350   -12.7410    28.0080 hn         1 EH0       0.319500
     51 H12         14.7670    -9.9790    27.9700 h1         1 EH0       0.043700
     52 H13         16.3640   -10.5910    27.5720 h1         1 EH0       0.043700
     53 H14         17.2770   -12.0140    30.0010 ha         1 EH0       0.089000
     54 H15         18.1990   -11.2790    32.1620 ha         1 EH0       0.125500
     55 H16         16.0530    -7.5310    31.7910 ha         1 EH0       0.125500
     56 H17         15.1350    -8.2800    29.6310 ha         1 EH0       0.089000
     57 H19          5.3420   -19.0750    29.0370 hc         1 EH0       0.016200
     58 H20          6.7070   -20.0480    29.7880 hc         1 EH0       0.016200
     59 C24         13.8170   -12.5470    28.6220 c          1 EH0       0.528600
     60 O07          9.9780   -10.2180    32.7010 oh         1 EH0      -0.502100
     61 O08          5.3780   -10.3110    31.4690 oh         1 EH0      -0.507100
@<TRIPOS>BOND
     1     1    12 1   
     2     1    14 2   
     3     1    17 1   
     4     2     4 ar  
     5     2    14 1   
     6     2    18 ar  
     7     3    18 ar  
     8     3    19 ar  
     9     3    34 1   
    10     4    20 ar  
    11     4    40 1   
    12     5    21 1   
    13     5    22 1   
    14     5    41 1   
    15     5    42 1   
    16     6    25 1   
    17     6    26 ar  
    18     6    30 ar  
    19     7     8 ar  
    20     7    12 ar  
    21     7    60 1   
    22     8     9 ar  
    23     8    43 1   
    24     9    10 ar  
    25     9    61 1   
    26    10    11 ar  
    27    10    13 1   
    28    11    12 ar  
    29    11    44 1   
    30    14    15 1   
    31    15    16 2   
    32    15    59 1   
    33    16    17 1   
    34    18    47 1   
    35    19    20 ar  
    36    19    21 1   
    37    20    38 1   
    38    22    35 1   
    39    22    48 1   
    40    22    49 1   
    41    23    25 1   
    42    23    50 1   
    43    23    59 1   
    44    24    59 2   
    45    25    51 1   
    46    25    52 1   
    47    26    27 ar  
    48    26    53 1   
    49    27    28 ar  
    50    27    54 1   
    51    28    29 ar  
    52    28    31 1   
    53    29    30 ar  
    54    29    55 1   
    55    30    56 1   
    56    31    32 1   
    57    31    33 1   
    58    35    36 1   
    59    35    57 1   
    60    35    58 1   
    61    36    37 1   
    62    36    39 1   
    63    45    60 1   
    64    46    61 1   
@<TRIPOS>SUBSTRUCTURE
     1 EH0         1 TEMP              0 ****  ****    0 ROOT
