@<TRIPOS>MOLECULE
EH0
   61    64     1     0     0
SMALL
bcc


@<TRIPOS>ATOM
      1 C10         10.6830   -11.6230    31.1570 cc         1 EH0       0.359200
      2 C15         10.8340   -13.9480    30.1360 ca         1 EH0       0.034000
      3 C17          9.4820   -15.8930    30.4480 ca         1 EH0       0.132900
      4 C20         11.1110   -14.3590    28.8360 ca         1 EH0      -0.165000
      5 C22          7.8570   -17.3330    28.1540 c3         1 EH0       0.131400
      6 C28         15.8390   -10.1940    29.5370 ca         1 EH0      -0.146300
      7 C01          8.7190   -10.7960    32.4740 ca         1 EH0       0.222100
      8 C02          7.3440   -10.6300    32.5900 ca         1 EH0      -0.339000
      9 C03          6.4840   -11.0470    31.5810 ca         1 EH0       0.205100
     10 C04          7.0240   -11.6380    30.4350 ca         1 EH0      -0.058600
     11 C05          8.3850   -11.8020    30.3160 ca         1 EH0      -0.013000
     12 C06          9.2570   -11.3900    31.3240 ca         1 EH0      -0.213500
     13 CL9          5.9670   -12.1470    29.1670 cl         1 EH0      -0.073400
     14 C11         11.3700   -12.6780    30.6320 cd         1 EH0      -0.267600
     15 C12         12.7170   -12.2370    30.6800 cd         1 EH0       0.292800
     16 N13         12.8120   -11.0510    31.2060 nc         1 EH0      -0.312300
     17 O14         11.5500   -10.6650    31.4990 os         1 EH0      -0.088100
     18 C16         10.0170   -14.7260    30.9520 ca         1 EH0      -0.165000
     19 C18          9.7220   -16.3290    29.1490 ca         1 EH0       0.052100
     20 C19         10.5480   -15.5280    28.3690 ca         1 EH0       0.132900
     21 O21          9.1950   -17.4690    28.6620 os         1 EH0      -0.318900
     22 C23          7.4640   -18.6090    27.4440 c3         1 EH0      -0.058400
     23 N25         14.9010   -12.4890    29.6320 ns         1 EH0      -0.549900
     24 O26         13.9710   -14.1990    30.7750 o          1 EH0      -0.593100
     25 C27         14.9040   -11.2190    28.9420 c3         1 EH0       0.167300
     26 C29         16.1810   -10.1880    30.8840 ca         1 EH0      -0.144000
     27 C30         17.0210    -9.2070    31.3950 ca         1 EH0      -0.108000
     28 C31         17.5400    -8.2040    30.5810 ca         1 EH0      -0.128600
     29 C32         17.1930    -8.2160    29.2320 ca         1 EH0      -0.108000
     30 C33         16.3600    -9.1970    28.7170 ca         1 EH0      -0.144000
     31 C34         18.4640    -7.1290    31.1470 c          1 EH0       0.924200
     32 O35         18.9000    -6.2900    30.3350 o          1 EH0      -0.828300
     33 O36         18.7010    -7.1870    32.3690 o          1 EH0      -0.828300
     34 F37          8.7030   -16.6500    31.2290 f          1 EH0      -0.128400
     35 C38          6.0330   -18.5180    26.9360 c3         1 EH0      -0.208400
     36 C39          5.5150   -19.7530    26.1670 c          1 EH0       0.931600
     37 O40          6.3570   -20.5850    25.7760 o          1 EH0      -0.845300
     38 F41         10.7900   -15.9170    27.1140 f          1 EH0      -0.128400
     39 O42          4.2810   -19.7970    25.9840 o          1 EH0      -0.845300
     40 H1          11.7340   -13.7620    28.1820 ha         1 EH0       0.151500
     41 H2           7.8100   -16.4840    27.4630 h1         1 EH0       0.023700
     42 H3           7.1680   -17.1230    28.9790 h1         1 EH0       0.023700
     43 H4           6.9320   -10.1750    33.4850 ha         1 EH0       0.132000
     44 H5           8.7830   -12.2460    29.4130 ha         1 EH0       0.167000
     45 H6           9.0900   -10.0500    34.1930 ho         1 EH0       0.428000
     46 H7           4.8960   -10.4910    32.4780 ho         1 EH0       0.428000
     47 H8           9.8020   -14.4300    31.9700 ha         1 EH0       0.151500
     48 H9           7.5650   -19.4530    28.1320 hc         1 EH0       0.055700
     49 H10          8.1500   -18.7890    26.6150 hc         1 EH0       0.055700
     50 H11         15.7100   -13.0770    29.4850 hn         1 EH0       0.319500
     51 H12         13.8900   -10.8230    28.9120 h1         1 EH0       0.043700
     52 H13         15.1840   -11.4000    27.9020 h1         1 EH0       0.043700
     53 H14         15.7970   -10.9530    31.5470 ha         1 EH0       0.107000
     54 H15         17.2780    -9.2230    32.4460 ha         1 EH0       0.143500
     55 H16         17.5870    -7.4510    28.5750 ha         1 EH0       0.143500
     56 H17         16.1140    -9.1900    27.6600 ha         1 EH0       0.107000
     57 H19          5.9360   -17.6510    26.2710 hc         1 EH0       0.016200
     58 H20          5.3530   -18.3150    27.7690 hc         1 EH0       0.016200
     59 C24         13.9250   -13.0540    30.3550 c          1 EH0       0.595600
     60 O07          9.5650   -10.4200    33.4390 oh         1 EH0      -0.463100
     61 O08          5.1600   -10.9100    31.6490 oh         1 EH0      -0.468100
@<TRIPOS>BOND
     1     1    12 1   
     2     1    14 2   
     3     1    17 1   
     4     2     4 ar  
     5     2    14 1   
     6     2    18 ar  
     7     3    18 ar  
     8     3    19 ar  
     9     3    34 1   
    10     4    20 ar  
    11     4    40 1   
    12     5    21 1   
    13     5    22 1   
    14     5    41 1   
    15     5    42 1   
    16     6    25 1   
    17     6    26 ar  
    18     6    30 ar  
    19     7     8 ar  
    20     7    12 ar  
    21     7    60 1   
    22     8     9 ar  
    23     8    43 1   
    24     9    10 ar  
    25     9    61 1   
    26    10    11 ar  
    27    10    13 1   
    28    11    12 ar  
    29    11    44 1   
    30    14    15 1   
    31    15    16 2   
    32    15    59 1   
    33    16    17 1   
    34    18    47 1   
    35    19    20 ar  
    36    19    21 1   
    37    20    38 1   
    38    22    35 1   
    39    22    48 1   
    40    22    49 1   
    41    23    25 1   
    42    23    50 1   
    43    23    59 1   
    44    24    59 2   
    45    25    51 1   
    46    25    52 1   
    47    26    27 ar  
    48    26    53 1   
    49    27    28 ar  
    50    27    54 1   
    51    28    29 ar  
    52    28    31 1   
    53    29    30 ar  
    54    29    55 1   
    55    30    56 1   
    56    31    32 1   
    57    31    33 1   
    58    35    36 1   
    59    35    57 1   
    60    35    58 1   
    61    36    37 1   
    62    36    39 1   
    63    45    60 1   
    64    46    61 1   
@<TRIPOS>SUBSTRUCTURE
     1 EH0         1 TEMP              0 ****  ****    0 ROOT
