@<TRIPOS>MOLECULE
EH1
   30    31     1     0     0
SMALL
No Charge or Current Charge


@<TRIPOS>ATOM
      1 C10         -1.8610     0.4620     0.0080 c6         1 EH1      -0.001400
      2 C13         -4.6840    -0.5580     0.0090 c6         1 EH1      -0.071400
      3 C15         -2.5110    -0.1350     1.2880 c6         1 EH1      -0.069400
      4 O01          4.7040     0.9020     0.0220 o          1 EH1      -0.723000
      5 O03          4.5000    -1.2350     0.0410 o          1 EH1      -0.723000
      6 C04          2.5030     0.0330     0.0240 ca         1 EH1      -0.128600
      7 C05          1.8950     1.3110     0.0100 ca         1 EH1      -0.090500
      8 C06          0.4960     1.4420     0.0050 ca         1 EH1      -0.137500
      9 C07         -0.3320     0.3040     0.0140 ca         1 EH1      -0.116300
     10 C08          0.2660    -0.9710     0.0270 ca         1 EH1      -0.137500
     11 C09          1.6650    -1.1060     0.0320 ca         1 EH1      -0.090500
     12 C11         -2.5040    -0.1580    -1.2640 c6         1 EH1      -0.069400
     13 C12         -4.0420     0.0290    -1.2720 c6         1 EH1      -0.074400
     14 C14         -4.0490     0.0520     1.2830 c6         1 EH1      -0.074400
     15 H1          -2.0930     1.5370    -0.0020 hc         1 EH1       0.036700
     16 H2          -5.7660    -0.3690     0.0050 hc         1 EH1       0.028700
     17 H3          -4.5570    -1.6500     0.0200 hc         1 EH1       0.028700
     18 H4          -2.2750    -1.2050     1.3680 hc         1 EH1       0.042700
     19 H5          -2.0840     0.3450     2.1790 hc         1 EH1       0.042700
     20 H7           2.5080     2.2090     0.0040 ha         1 EH1       0.125000
     21 H8           0.0570     2.4370    -0.0050 ha         1 EH1       0.082500
     22 H9          -0.3520    -1.8660     0.0330 ha         1 EH1       0.082500
     23 H10          2.0970    -2.1050     0.0420 ha         1 EH1       0.125000
     24 H11         -2.0720     0.3060    -2.1620 hc         1 EH1       0.042700
     25 H12         -2.2680    -1.2290    -1.3250 hc         1 EH1       0.042700
     26 H13         -4.4720    -0.4560    -2.1590 hc         1 EH1       0.028950
     27 H14         -4.2850     1.0970    -1.3510 hc         1 EH1       0.028950
     28 H15         -4.2920     1.1220     1.3420 hc         1 EH1       0.028950
     29 H16         -4.4840    -0.4160     2.1770 hc         1 EH1       0.028950
     30 C02          4.0180    -0.1110     0.0290 c          1 EH1       0.711600
@<TRIPOS>BOND
     1     1     3 1   
     2     1     9 1   
     3     1    12 1   
     4     1    15 1   
     5     2    13 1   
     6     2    14 1   
     7     2    16 1   
     8     2    17 1   
     9     3    14 1   
    10     3    18 1   
    11     3    19 1   
    12     4    30 1   
    13     5    30 1   
    14     6     7 ar  
    15     6    11 ar  
    16     6    30 1   
    17     7     8 ar  
    18     7    20 1   
    19     8     9 ar  
    20     8    21 1   
    21     9    10 ar  
    22    10    11 ar  
    23    10    22 1   
    24    11    23 1   
    25    12    13 1   
    26    12    24 1   
    27    12    25 1   
    28    13    26 1   
    29    13    27 1   
    30    14    28 1   
    31    14    29 1   
@<TRIPOS>SUBSTRUCTURE
     1 EH1         1 TEMP              0 ****  ****    0 ROOT
