@<TRIPOS>MOLECULE
EH1
   30    31     1     0     0
SMALL
bcc


@<TRIPOS>ATOM
      1 C10         -1.8570     0.4510     0.0170 c6         1 EH1      -0.001400
      2 C13         -4.6410    -0.5470     0.0010 c6         1 EH1      -0.071400
      3 C15         -2.5040    -0.1410     1.2740 c6         1 EH1      -0.069400
      4 O01          4.6360     0.9450    -0.0180 o          1 EH1      -0.828300
      5 O03          4.4240    -1.2720     0.0420 o          1 EH1      -0.828300
      6 C04          2.4570     0.0350     0.0230 ca         1 EH1      -0.128600
      7 C05          1.8550     1.2890     0.0020 ca         1 EH1      -0.108500
      8 C06          0.4730     1.4200     0.0020 ca         1 EH1      -0.155500
      9 C07         -0.3580     0.3020     0.0240 ca         1 EH1      -0.116300
     10 C08          0.2480    -0.9550     0.0470 ca         1 EH1      -0.155500
     11 C09          1.6280    -1.0850     0.0470 ca         1 EH1      -0.108500
     12 C11         -2.4880    -0.1500    -1.2450 c6         1 EH1      -0.069400
     13 C12         -4.0020     0.0350    -1.2550 c6         1 EH1      -0.074400
     14 C14         -4.0180     0.0420     1.2620 c6         1 EH1      -0.074400
     15 H1          -2.0810     1.5260     0.0110 hc         1 EH1       0.036700
     16 H2          -5.7200    -0.3740    -0.0060 hc         1 EH1       0.028700
     17 H3          -4.5010    -1.6330     0.0050 hc         1 EH1       0.028700
     18 H4          -2.2690    -1.2090     1.3410 hc         1 EH1       0.042700
     19 H5          -2.0720     0.3270     2.1630 hc         1 EH1       0.042700
     20 H7           2.4760     2.1760    -0.0170 ha         1 EH1       0.143000
     21 H8           0.0320     2.4110    -0.0160 ha         1 EH1       0.100500
     22 H9          -0.3670    -1.8480     0.0640 ha         1 EH1       0.100500
     23 H10          2.0710    -2.0730     0.0640 ha         1 EH1       0.143000
     24 H11         -2.0430     0.3080    -2.1320 hc         1 EH1       0.042700
     25 H12         -2.2540    -1.2190    -1.2990 hc         1 EH1       0.042700
     26 H13         -4.4280    -0.4300    -2.1470 hc         1 EH1       0.028950
     27 H14         -4.2350     1.1040    -1.3220 hc         1 EH1       0.028950
     28 H15         -4.2530     1.1110     1.3220 hc         1 EH1       0.028950
     29 H16         -4.4550    -0.4190     2.1510 hc         1 EH1       0.028950
     30 C02          3.9720    -0.1100     0.0160 c          1 EH1       0.922200
@<TRIPOS>BOND
     1     1     3 1   
     2     1     9 1   
     3     1    12 1   
     4     1    15 1   
     5     2    13 1   
     6     2    14 1   
     7     2    16 1   
     8     2    17 1   
     9     3    14 1   
    10     3    18 1   
    11     3    19 1   
    12     4    30 1   
    13     5    30 1   
    14     6     7 ar  
    15     6    11 ar  
    16     6    30 1   
    17     7     8 ar  
    18     7    20 1   
    19     8     9 ar  
    20     8    21 1   
    21     9    10 ar  
    22    10    11 ar  
    23    10    22 1   
    24    11    23 1   
    25    12    13 1   
    26    12    24 1   
    27    12    25 1   
    28    13    26 1   
    29    13    27 1   
    30    14    28 1   
    31    14    29 1   
@<TRIPOS>SUBSTRUCTURE
     1 EH1         1 TEMP              0 ****  ****    0 ROOT
