@<TRIPOS>MOLECULE
EH2
   25    26     1     0     0
SMALL
bcc


@<TRIPOS>ATOM
      1 C4          -2.4290     0.2630    -0.0030 ca         1 EH2      -0.096600
      2 C5           1.0430    -1.0560    -0.0960 ce         1 EH2      -0.169200
      3 C7          -1.3960    -0.6720     0.2020 ca         1 EH2      -0.060800
      4 C8           4.6340     0.4410     0.2480 cc         1 EH2      -0.156100
      5 C13         -3.7420    -0.1980    -0.1000 ca         1 EH2      -0.117000
      6 C15         -4.0600    -1.5390     0.0430 ca         1 EH2      -0.145000
      7 C1          -2.2130     1.7700    -0.1350 c          1 EH2       0.923200
      8 C11          4.7560    -0.8060    -0.2820 cd         1 EH2      -0.150000
      9 C14         -1.7330    -2.0270     0.3290 ca         1 EH2      -0.136000
     10 C16         -3.0440    -2.4610     0.2580 ca         1 EH2      -0.168000
     11 C2           0.0130    -0.2690     0.2480 cf         1 EH2      -0.027200
     12 C3           2.4400    -0.6850    -0.0460 cc         1 EH2       0.026100
     13 C9           3.5030    -1.4500    -0.4510 cd         1 EH2      -0.197000
     14 O10         -2.9290     2.3490    -0.9710 o          1 EH2      -0.820300
     15 O12         -1.3730     2.2980     0.6200 o          1 EH2      -0.820300
     16 S6           2.9940     0.8420     0.5510 ss         1 EH2      -0.060800
     17 H1           0.8680    -2.0610    -0.4680 ha         1 EH2       0.117000
     18 H3          -4.5340     0.5160    -0.2830 ha         1 EH2       0.142000
     19 H4          -5.0920    -1.8610    -0.0140 ha         1 EH2       0.105000
     20 H6          -0.9520    -2.7550     0.5110 ha         1 EH2       0.107000
     21 H7          -3.2710    -3.5130     0.3770 ha         1 EH2       0.103000
     22 H8           0.2000     0.7490     0.5660 ha         1 EH2       0.176000
     23 H9           3.3840    -2.4450    -0.8590 ha         1 EH2       0.140000
     24 H2           5.4170     1.1460     0.4810 h4         1 EH2       0.153000
     25 H5           5.7050    -1.2520    -0.5440 ha         1 EH2       0.132000
@<TRIPOS>BOND
     1     1     3 ar  
     2     1     5 ar  
     3     1     7 1   
     4     2    11 2   
     5     2    12 1   
     6     2    17 1   
     7     3     9 ar  
     8     3    11 1   
     9     4     8 2   
    10     4    16 1   
    11     4    24 1   
    12     5     6 ar  
    13     5    18 1   
    14     6    10 ar  
    15     6    19 1   
    16     7    14 1   
    17     7    15 1   
    18     8    13 1   
    19     8    25 1   
    20     9    10 ar  
    21     9    20 1   
    22    10    21 1   
    23    11    22 1   
    24    12    13 2   
    25    12    16 1   
    26    13    23 1   
@<TRIPOS>SUBSTRUCTURE
     1 EH2         1 TEMP              0 ****  ****    0 ROOT
