@<TRIPOS>MOLECULE
EH2
   25    26     1     0     0
SMALL
No Charge or Current Charge


@<TRIPOS>ATOM
      1 C4          -2.4700     0.2620     0.1280 ca         1 EH2      -0.096600
      2 C5           1.1060    -1.1180     0.0310 ce         1 EH2      -0.219200
      3 C7          -1.4390    -0.7150     0.0030 ca         1 EH2      -0.060800
      4 C8           4.6850     0.5660    -0.2410 cc         1 EH2      -0.283000
      5 C13         -3.8220    -0.1510     0.1410 ca         1 EH2      -0.099000
      6 C15         -4.1620    -1.5080     0.0430 ca         1 EH2      -0.127000
      7 C1          -2.1810     1.7420     0.2590 c          1 EH2       0.712600
      8 C11          4.8440    -0.7830    -0.0650 cd         1 EH2      -0.132000
      9 C14         -1.8050    -2.0780    -0.0950 ca         1 EH2      -0.118000
     10 C16         -3.1520    -2.4710    -0.0730 ca         1 EH2      -0.150000
     11 C2          -0.0060    -0.3290    -0.0550 cf         1 EH2      -0.077200
     12 C3           2.5020    -0.6910    -0.0450 cc         1 EH2      -0.118800
     13 C9           3.6160    -1.4880     0.0450 cd         1 EH2      -0.179000
     14 O10         -2.7150     2.5040    -0.5350 o          1 EH2      -0.715000
     15 O12         -1.4720     2.1200     1.1810 o          1 EH2      -0.715000
     16 S6           2.9780     0.9990    -0.2730 ss         1 EH2       0.229000
     17 H1           0.9820    -2.1890     0.1830 ha         1 EH2       0.167000
     18 H3          -4.6120     0.5910     0.2350 ha         1 EH2       0.124000
     19 H4          -5.2060    -1.8110     0.0570 ha         1 EH2       0.087000
     20 H6          -1.0490    -2.8490    -0.2050 ha         1 EH2       0.089000
     21 H7          -3.4130    -3.5230    -0.1530 ha         1 EH2       0.085000
     22 H8           0.1670     0.7370    -0.2040 ha         1 EH2       0.226000
     23 H9           3.5640    -2.5630     0.1870 ha         1 EH2       0.122000
     24 H2           5.4360     1.3380    -0.3530 h4         1 EH2       0.135000
     25 H5           5.8160    -1.2670    -0.0160 ha         1 EH2       0.114000
@<TRIPOS>BOND
     1     1     3 ar  
     2     1     5 ar  
     3     1     7 1   
     4     2    11 2   
     5     2    12 1   
     6     2    17 1   
     7     3     9 ar  
     8     3    11 1   
     9     4     8 2   
    10     4    16 1   
    11     4    24 1   
    12     5     6 ar  
    13     5    18 1   
    14     6    10 ar  
    15     6    19 1   
    16     7    14 1   
    17     7    15 1   
    18     8    13 1   
    19     8    25 1   
    20     9    10 ar  
    21     9    20 1   
    22    10    21 1   
    23    11    22 1   
    24    12    13 2   
    25    12    16 1   
    26    13    23 1   
@<TRIPOS>SUBSTRUCTURE
     1 EH2         1 TEMP              0 ****  ****    0 ROOT
