@<TRIPOS>MOLECULE
EH3
   77    81     1     0     0
SMALL
No Charge or Current Charge


@<TRIPOS>ATOM
      1 N1           4.9110   -16.5160   -33.8300 nc         1 EH3      -0.355300
      2 N3           4.1630   -16.3130   -36.4590 ns         1 EH3      -0.480900
      3 C4           3.9090   -20.2080   -29.3110 ca         1 EH3       0.032000
      4 C5           3.8430   -19.5350   -30.5410 ca         1 EH3       0.005000
      5 C6           4.9980   -18.9410   -31.0930 ca         1 EH3      -0.212500
      6 C7           4.9180   -18.2460   -32.3790 cc         1 EH3       0.245500
      7 C8           4.2700   -18.6940   -33.4970 cd         1 EH3      -0.121000
      8 C10          3.7840   -20.0720   -33.7390 ca         1 EH3      -0.014000
      9 C13          2.8060   -22.7110   -34.1240 ca         1 EH3       0.103100
     10 C15          4.4710   -21.1830   -33.2060 ca         1 EH3      -0.073500
     11 C17         -0.0150   -24.0340   -33.7390 c6         1 EH3      -0.117400
     12 C20          1.0520   -25.8780   -35.1420 c6         1 EH3      -0.117400
     13 C21         -1.0910   -24.4170   -37.6180 c3         1 EH3      -0.371100
     14 C24          2.3980   -15.3270   -37.9890 c6         1 EH3      -0.080700
     15 C26         -0.1510   -15.6840   -37.9020 c6         1 EH3      -0.052900
     16 C28          0.8330   -13.4950   -36.9880 c6         1 EH3      -0.052900
     17 C1           6.2140   -19.0180   -30.3890 ca         1 EH3       0.221100
     18 C2           6.2830   -19.6870   -29.1590 ca         1 EH3      -0.320000
     19 C3           5.1350   -20.2830   -28.6180 ca         1 EH3       0.208100
     20 O1           7.3440   -18.4640   -30.9020 oh         1 EH3      -0.505100
     21 O2           5.2260   -20.9300   -27.4210 oh         1 EH3      -0.508100
     22 C9           4.3710   -17.5920   -34.4090 cd         1 EH3       0.235500
     23 O3           5.2550   -16.9280   -32.5010 os         1 EH3      -0.046700
     24 C11          2.5940   -20.3010   -34.4590 ca         1 EH3      -0.073500
     25 C12          2.1080   -21.6060   -34.6580 ca         1 EH3      -0.133500
     26 C14          3.9900   -22.4880   -33.4060 ca         1 EH3      -0.133500
     27 O4           2.3940   -24.0220   -34.2820 os         1 EH3      -0.360100
     28 C16          1.0830   -24.3670   -34.7810 c6         1 EH3       0.178300
     29 C18         -1.4250   -24.3670   -34.2930 c6         1 EH3       0.221300
     30 N2          -1.4510   -25.6060   -35.1190 n3         1 EH3      -0.774500
     31 C19         -0.3240   -26.5400   -34.8770 c6         1 EH3       0.221300
     32 S1          -2.1480   -25.5170   -36.6920 s6         1 EH3       1.219100
     33 O5          -2.0540   -26.8610   -37.2700 o          1 EH3      -0.541500
     34 O6          -3.4710   -24.9090   -36.5210 o          1 EH3      -0.541500
     35 O7           3.6200   -18.5200   -36.5370 o          1 EH3      -0.581100
     36 C23          3.8120   -15.9670   -37.8410 c3         1 EH3       0.103000
     37 C25          1.2460   -16.2610   -37.5290 c6         1 EH3      -0.070400
     38 C27         -0.1810   -14.1220   -37.9830 c6         1 EH3      -0.191700
     39 C29          2.2970   -13.9360   -37.2840 c6         1 EH3      -0.070400
     40 C30         -1.6100   -13.5470   -37.8100 c          1 EH3       0.720000
     41 O8          -2.1800   -13.7080   -36.7410 o          1 EH3      -0.736000
     42 O9          -2.1020   -12.9430   -38.7520 o          1 EH3      -0.736000
     43 H1           4.4990   -15.5770   -35.8480 hn         1 EH3       0.324500
     44 H2           2.8910   -19.4780   -31.0650 ha         1 EH3       0.150000
     45 H3           5.3980   -21.0450   -32.6550 ha         1 EH3       0.124500
     46 H4           0.1660   -24.6110   -32.8220 hc         1 EH3       0.064700
     47 H5           0.0190   -22.9770   -33.4470 hc         1 EH3       0.064700
     48 H6           1.8160   -26.4210   -34.5700 hc         1 EH3       0.064700
     49 H7           1.3230   -26.0000   -36.1980 hc         1 EH3       0.064700
     50 H8          -1.0730   -23.4520   -37.1020 h1         1 EH3       0.103700
     51 H9          -0.0970   -24.8690   -37.6660 h1         1 EH3       0.103700
     52 H10         -1.5260   -24.3190   -38.6180 h1         1 EH3       0.103700
     53 H11          2.2760   -15.1650   -39.0690 hc         1 EH3       0.053700
     54 H14          0.7660   -12.3990   -37.0170 hc         1 EH3       0.040950
     55 H15          0.5650   -13.7900   -35.9640 hc         1 EH3       0.040950
     56 H16          7.2290   -19.7460   -28.6250 ha         1 EH3       0.117000
     57 H17          8.0740   -18.6240   -30.2680 ho         1 EH3       0.469000
     58 H18          6.1530   -20.8650   -27.1110 ho         1 EH3       0.470000
     59 H19          2.0170   -19.4630   -34.8400 ha         1 EH3       0.124500
     60 H20          1.1900   -21.7310   -35.2220 ha         1 EH3       0.126000
     61 H21          4.5370   -23.3330   -32.9970 ha         1 EH3       0.126000
     62 H22          0.8930   -23.8020   -35.7030 h1         1 EH3       0.040700
     63 H23         -1.7750   -23.5050   -34.8800 h1         1 EH3       0.063200
     64 H24         -2.1240   -24.4630   -33.4490 h1         1 EH3       0.063200
     65 H25         -0.4160   -27.4670   -35.4620 h1         1 EH3       0.063200
     66 H26         -0.3490   -26.8510   -33.8220 h1         1 EH3       0.063200
     67 H27          3.8640   -16.8670   -38.4680 h1         1 EH3       0.048700
     68 H28          4.5610   -15.2590   -38.2210 h1         1 EH3       0.048700
     69 H29          1.3010   -16.4010   -36.4400 hc         1 EH3       0.019200
     70 H30          1.3600   -17.2590   -37.9740 hc         1 EH3       0.019200
     71 H31          0.1460   -13.8440   -38.9950 hc         1 EH3       0.024700
     72 H32          2.8540   -13.9380   -36.3370 hc         1 EH3       0.019200
     73 H33          2.7860   -13.1830   -37.9170 hc         1 EH3       0.019200
     74 C22          4.0020   -17.5610   -35.8780 c          1 EH3       0.523600
     75 H12         -0.8820   -16.0440   -37.1660 hc         1 EH3       0.040950
     76 Cl1          2.4440   -20.9480   -28.6580 cl         1 EH3      -0.175000
     77 H13         -0.4740   -16.0950   -38.8690 hc         1 EH3       0.040950
@<TRIPOS>BOND
     1     1    22 2   
     2     1    23 1   
     3     2    36 1   
     4     2    43 1   
     5     2    74 1   
     6     3     4 ar  
     7     3    19 ar  
     8     3    76 1   
     9     4     5 ar  
    10     4    44 1   
    11     5     6 1   
    12     5    17 ar  
    13     6     7 2   
    14     6    23 1   
    15     7     8 1   
    16     7    22 1   
    17     8    10 ar  
    18     8    24 ar  
    19     9    25 ar  
    20     9    26 ar  
    21     9    27 1   
    22    10    26 ar  
    23    10    45 1   
    24    11    28 1   
    25    11    29 1   
    26    11    46 1   
    27    11    47 1   
    28    12    28 1   
    29    12    31 1   
    30    12    48 1   
    31    12    49 1   
    32    13    32 1   
    33    13    50 1   
    34    13    51 1   
    35    13    52 1   
    36    14    36 1   
    37    14    37 1   
    38    14    39 1   
    39    14    53 1   
    40    15    37 1   
    41    15    38 1   
    42    15    75 1   
    43    15    77 1   
    44    16    38 1   
    45    16    39 1   
    46    16    54 1   
    47    16    55 1   
    48    17    18 ar  
    49    17    20 1   
    50    18    19 ar  
    51    18    56 1   
    52    19    21 1   
    53    20    57 1   
    54    21    58 1   
    55    22    74 1   
    56    24    25 ar  
    57    24    59 1   
    58    25    60 1   
    59    26    61 1   
    60    27    28 1   
    61    28    62 1   
    62    29    30 1   
    63    29    63 1   
    64    29    64 1   
    65    30    31 1   
    66    30    32 1   
    67    31    65 1   
    68    31    66 1   
    69    32    33 2   
    70    32    34 2   
    71    35    74 2   
    72    36    67 1   
    73    36    68 1   
    74    37    69 1   
    75    37    70 1   
    76    38    40 1   
    77    38    71 1   
    78    39    72 1   
    79    39    73 1   
    80    40    41 1   
    81    40    42 1   
@<TRIPOS>SUBSTRUCTURE
     1 EH3         1 TEMP              0 ****  ****    0 ROOT
