@<TRIPOS>MOLECULE
EH3
   77    81     1     0     0
SMALL
abcg2


@<TRIPOS>ATOM
      1 N1           5.0310   -16.4040   -33.2020 nc         1 EH3      -0.355300
      2 N3           4.3000   -15.6260   -35.8410 ns         1 EH3      -0.480900
      3 C4           3.0520   -21.0650   -30.2170 ca         1 EH3       0.032000
      4 C5           3.2710   -20.1340   -31.2060 ca         1 EH3       0.005000
      5 C6           4.3590   -19.2620   -31.1580 ca         1 EH3      -0.212500
      6 C7           4.5790   -18.3530   -32.2740 cc         1 EH3       0.245500
      7 C8           4.4250   -18.5320   -33.6180 cd         1 EH3      -0.121000
      8 C10          3.9910   -19.7530   -34.3020 ca         1 EH3      -0.014000
      9 C13          2.9920   -22.1300   -35.3710 ca         1 EH3       0.103100
     10 C15          4.6510   -20.9590   -34.0860 ca         1 EH3      -0.073500
     11 C17          1.4550   -24.3190   -33.8870 c6         1 EH3      -0.117400
     12 C20          0.6060   -24.7340   -36.2050 c6         1 EH3      -0.117400
     13 C21         -2.3440   -22.9020   -35.0230 c3         1 EH3      -0.371100
     14 C24          2.7930   -15.1760   -37.7810 c6         1 EH3      -0.080700
     15 C26          1.0230   -16.7000   -38.7470 c6         1 EH3      -0.052900
     16 C28          0.3210   -14.8690   -37.1950 c6         1 EH3      -0.052900
     17 C1           5.2300   -19.3400   -30.0620 ca         1 EH3       0.221100
     18 C2           5.0000   -20.2750   -29.0580 ca         1 EH3      -0.320000
     19 C3           3.9210   -21.1480   -29.1240 ca         1 EH3       0.208100
     20 O1           6.2780   -18.5100   -30.0340 oh         1 EH3      -0.505100
     21 O2           3.6680   -22.0680   -28.1930 oh         1 EH3      -0.508100
     22 C9           4.7160   -17.2470   -34.1420 cd         1 EH3       0.235500
     23 O3           4.9460   -17.0880   -32.0370 os         1 EH3      -0.046700
     24 C11          2.8490   -19.7470   -35.1010 ca         1 EH3      -0.073500
     25 C12          2.3520   -20.9230   -35.6360 ca         1 EH3      -0.133500
     26 C14          4.1540   -22.1430   -34.6090 ca         1 EH3      -0.133500
     27 O4           2.4960   -23.3020   -35.8550 os         1 EH3      -0.360100
     28 C16          1.2610   -23.7180   -35.2710 c6         1 EH3       0.178300
     29 C18          0.0900   -24.5620   -33.2420 c6         1 EH3       0.221300
     30 N2          -0.8640   -25.0900   -34.2270 n3         1 EH3      -0.774500
     31 C19         -0.2790   -25.7030   -35.4140 c6         1 EH3       0.221300
     32 S1          -2.3950   -24.5050   -34.2430 s6         1 EH3       1.219100
     33 O5          -3.1980   -25.3750   -35.0900 o          1 EH3      -0.541500
     34 O6          -2.7860   -24.3060   -32.8550 o          1 EH3      -0.541500
     35 O7           5.1690   -17.6520   -36.4090 o          1 EH3      -0.581100
     36 C23          4.1910   -15.0600   -37.1710 c3         1 EH3       0.103000
     37 C25          2.3080   -16.6140   -37.9120 c6         1 EH3      -0.070400
     38 C27          0.1190   -15.4700   -38.5830 c6         1 EH3      -0.191700
     39 C29          1.7510   -14.3410   -37.0170 c6         1 EH3      -0.070400
     40 C30         -1.3650   -15.7400   -38.9340 c          1 EH3       0.720000
     41 O8          -1.6150   -16.7490   -39.6250 o          1 EH3      -0.736000
     42 O9          -2.1980   -14.9030   -38.5260 o          1 EH3      -0.736000
     43 H1           3.9560   -15.0760   -35.0690 hn         1 EH3       0.324500
     44 H2           2.5810   -20.0780   -32.0370 ha         1 EH3       0.150000
     45 H3           5.5470   -20.9820   -33.4800 ha         1 EH3       0.124500
     46 H4           2.0320   -25.2440   -33.9570 hc         1 EH3       0.064700
     47 H5           2.0160   -23.6440   -33.2370 hc         1 EH3       0.064700
     48 H6           1.3800   -25.3140   -36.7120 hc         1 EH3       0.064700
     49 H7           0.0320   -24.2180   -36.9770 hc         1 EH3       0.064700
     50 H8          -1.6810   -22.2440   -34.4660 h1         1 EH3       0.103700
     51 H9          -1.9940   -23.0100   -36.0470 h1         1 EH3       0.103700
     52 H10         -3.3530   -22.4920   -35.0200 h1         1 EH3       0.103700
     53 H11          2.8890   -14.7640   -38.7940 hc         1 EH3       0.053700
     54 H14         -0.3950   -14.0670   -37.0200 hc         1 EH3       0.040950
     55 H15          0.1130   -15.6350   -36.4410 hc         1 EH3       0.040950
     56 H16          5.6800   -20.3350   -28.2140 ha         1 EH3       0.117000
     57 H17          6.8300   -18.6750   -29.2600 ho         1 EH3       0.469000
     58 H18          4.3270   -22.0430   -27.4880 ho         1 EH3       0.470000
     59 H19          2.3220   -18.8180   -35.2810 ha         1 EH3       0.124500
     60 H20          1.4580   -20.9010   -36.2470 ha         1 EH3       0.126000
     61 H21          4.6610   -23.0800   -34.4190 ha         1 EH3       0.126000
     62 H22          0.6060   -22.8430   -35.1760 h1         1 EH3       0.040700
     63 H23         -0.2750   -23.6190   -32.8340 h1         1 EH3       0.063200
     64 H24          0.1840   -25.2570   -32.4060 h1         1 EH3       0.063200
     65 H25         -1.0650   -26.1170   -36.0400 h1         1 EH3       0.063200
     66 H26          0.3120   -26.5540   -35.0700 h1         1 EH3       0.063200
     67 H27          4.9210   -15.5530   -37.8130 h1         1 EH3       0.048700
     68 H28          4.4800   -14.0090   -37.1080 h1         1 EH3       0.048700
     69 H29          2.1260   -17.0180   -36.9100 hc         1 EH3       0.019200
     70 H30          3.0830   -17.2440   -38.3550 hc         1 EH3       0.019200
     71 H31          0.4490   -14.7080   -39.3060 hc         1 EH3       0.024700
     72 H32          1.9860   -14.3220   -35.9480 hc         1 EH3       0.019200
     73 H33          1.8110   -13.3030   -37.3560 hc         1 EH3       0.019200
     74 C22          4.7500   -16.8580   -35.5830 c          1 EH3       0.523600
     75 H12          0.4760   -17.6020   -38.4640 hc         1 EH3       0.040950
     76 CL1          1.7040   -22.1450   -30.3150 cl         1 EH3      -0.175000
     77 H13          1.2830   -16.8260   -39.8010 hc         1 EH3       0.040950
@<TRIPOS>BOND
     1     1    22 2   
     2     1    23 1   
     3     2    36 1   
     4     2    43 1   
     5     2    74 1   
     6     3     4 ar  
     7     3    19 ar  
     8     3    76 1   
     9     4     5 ar  
    10     4    44 1   
    11     5     6 1   
    12     5    17 ar  
    13     6     7 2   
    14     6    23 1   
    15     7     8 1   
    16     7    22 1   
    17     8    10 ar  
    18     8    24 ar  
    19     9    25 ar  
    20     9    26 ar  
    21     9    27 1   
    22    10    26 ar  
    23    10    45 1   
    24    11    28 1   
    25    11    29 1   
    26    11    46 1   
    27    11    47 1   
    28    12    28 1   
    29    12    31 1   
    30    12    48 1   
    31    12    49 1   
    32    13    32 1   
    33    13    50 1   
    34    13    51 1   
    35    13    52 1   
    36    14    36 1   
    37    14    37 1   
    38    14    39 1   
    39    14    53 1   
    40    15    37 1   
    41    15    38 1   
    42    15    75 1   
    43    15    77 1   
    44    16    38 1   
    45    16    39 1   
    46    16    54 1   
    47    16    55 1   
    48    17    18 ar  
    49    17    20 1   
    50    18    19 ar  
    51    18    56 1   
    52    19    21 1   
    53    20    57 1   
    54    21    58 1   
    55    22    74 1   
    56    24    25 ar  
    57    24    59 1   
    58    25    60 1   
    59    26    61 1   
    60    27    28 1   
    61    28    62 1   
    62    29    30 1   
    63    29    63 1   
    64    29    64 1   
    65    30    31 1   
    66    30    32 1   
    67    31    65 1   
    68    31    66 1   
    69    32    33 2   
    70    32    34 2   
    71    35    74 2   
    72    36    67 1   
    73    36    68 1   
    74    37    69 1   
    75    37    70 1   
    76    38    40 1   
    77    38    71 1   
    78    39    72 1   
    79    39    73 1   
    80    40    41 1   
    81    40    42 1   
@<TRIPOS>SUBSTRUCTURE
     1 EH3         1 TEMP              0 ****  ****    0 ROOT
