@<TRIPOS>MOLECULE
EH5
  110   116     1     0     0
SMALL
No Charge or Current Charge


@<TRIPOS>ATOM
      1 CA           0.7120     3.2000    -0.8920 c3         1 EH5       0.073700
      2 CB           1.0500     4.2910    -1.9410 c3         1 EH5      -0.045100
      3 CG           2.4440     4.8850    -1.7500 ca         1 EH5      -0.085300
      4 CD1          3.4660     4.6230    -2.6850 ca         1 EH5      -0.104000
      5 CD2          2.7280     5.6810    -0.6230 ca         1 EH5      -0.104000
      6 CE1          4.7550     5.1480    -2.4930 ca         1 EH5      -0.106500
      7 CE2          4.0170     6.2060    -0.4310 ca         1 EH5      -0.106500
      8 CZ           5.0320     5.9390    -1.3650 ca         1 EH5      -0.109000
      9 N2           1.8360     2.2520    -0.7870 ns         1 EH5      -0.506900
     10 C1          -0.6530     2.4980    -1.1700 c3         1 EH5       0.139300
     11 CB1         -1.1430     1.6410     0.0300 c3         1 EH5       0.072000
     12 N1          -2.5250     1.1100    -0.1220 n          1 EH5      -0.404800
     13 O1          -0.5540     1.6820    -2.3540 oh         1 EH5      -0.654000
     14 C3          -2.6640    -0.2690    -0.6520 c3         1 EH5       0.109000
     15 C4          -2.5150    -1.3490     0.4450 c3         1 EH5      -0.102400
     16 C2          -3.6370     1.8910     0.2830 c          1 EH5       0.609100
     17 C6          -5.0540     1.3060     0.1630 c3         1 EH5      -0.180400
     18 O2          -3.4710     3.0260     0.7110 o          1 EH5      -0.610100
     19 C7          -6.1640     2.1690     0.7910 c3         1 EH5       0.121000
     20 C5           2.3170     1.7150     0.3890 c          1 EH5       0.608700
     21 O3           1.7190     1.8600     1.4470 o          1 EH5      -0.588100
     22 C10        -11.5970    -0.6120     0.9340 ca         1 EH5      -0.099000
     23 C22        -10.3920    -0.4650     1.6540 ca         1 EH5      -0.045500
     24 C14         -9.3970     0.3560     1.1040 ca         1 EH5      -0.147600
     25 C18         -9.5830     1.0100    -0.1080 ca         1 EH5      -0.147600
     26 C32        -10.7730     0.8790    -0.8380 ca         1 EH5      -0.045500
     27 C26        -11.7870     0.0550    -0.3020 ca         1 EH5      -0.099000
     28 C30         -8.0430     0.7020     1.6230 c          1 EH5       0.584600
     29 N3          -7.4910     1.5440     0.6570 n          1 EH5      -0.397400
     30 C9          -8.3530     1.7990    -0.4100 c          1 EH5       0.584600
     31 O7          -8.1400     2.5150    -1.3780 o          1 EH5      -0.485000
     32 C11         -4.0770    -3.1460    -0.5750 c6         1 EH5      -0.075400
     33 C23         -4.1490    -4.5800    -1.1500 c6         1 EH5      -0.066400
     34 C15         -3.6470    -5.6560    -0.1550 c5         1 EH5       0.141300
     35 C19         -2.3680    -5.3000     0.6610 c5         1 EH5       0.140300
     36 C33         -2.2870    -3.8100     1.0950 c6         1 EH5      -0.095400
     37 C27         -2.6490    -2.8220    -0.0470 c6         1 EH5      -0.055700
     38 O5          -4.5850    -5.9230     0.8950 os         1 EH5      -0.474000
     39 C8          -3.8290    -6.7220     1.8210 c5         1 EH5       0.367600
     40 O8          -2.5280    -6.0870     1.8710 os         1 EH5      -0.472000
     41 C12          6.1120    -0.4600     0.1830 ca         1 EH5       0.042100
     42 C24          5.2960    -0.5180     1.3370 ca         1 EH5       0.150600
     43 C16          4.0770     0.1890     1.3880 ca         1 EH5      -0.194500
     44 C20          3.6360     0.9610     0.2940 ca         1 EH5      -0.080600
     45 C34          4.4560     1.0240    -0.8570 ca         1 EH5      -0.194500
     46 C28          5.6870     0.3300    -0.9290 ca         1 EH5       0.150600
     47 O9           5.7300    -1.2860     2.4080 os         1 EH5      -0.321600
     48 O6           6.4720     0.4240    -2.0670 os         1 EH5      -0.321600
     49 C31          6.1310     1.2410    -3.2020 c3         1 EH5       0.143900
     50 C37          4.9790    -1.4160     3.6280 c3         1 EH5       0.143900
     51 C36          8.2620    -1.2790    -0.8370 c3         1 EH5       0.208900
     52 C13         11.5010    -3.8710     0.4470 ca         1 EH5      -0.102000
     53 C25         10.3850    -4.4140    -0.2110 ca         1 EH5      -0.117500
     54 C17          9.3350    -3.5750    -0.6260 ca         1 EH5      -0.084500
     55 C21          9.3970    -2.1880    -0.3860 ca         1 EH5      -0.089300
     56 C35         10.5190    -1.6490     0.2760 ca         1 EH5      -0.084500
     57 C29         11.5680    -2.4890     0.6910 ca         1 EH5      -0.117500
     58 HA1          0.6210     3.7170     0.0740 h1         1 EH5       0.096700
     59 HB1          0.9620     3.8640    -2.9480 hc         1 EH5       0.061700
     60 HB2          0.2960     5.0860    -1.8850 hc         1 EH5       0.061700
     61 HD11         3.2640     4.0090    -3.5600 ha         1 EH5       0.110000
     62 HD21         1.9500     5.8890     0.1080 ha         1 EH5       0.110000
     63 HE11         5.5400     4.9420    -3.2180 ha         1 EH5       0.113000
     64 HE21         4.2300     6.8180     0.4430 ha         1 EH5       0.113000
     65 HZ1          6.0300     6.3450    -1.2160 ha         1 EH5       0.112000
     66 HN21         2.4060     2.1060    -1.6090 hn         1 EH5       0.310500
     67 H11         -1.4030     3.2870    -1.3230 h1         1 EH5       0.098700
     68 HB11        -0.4520     0.8020     0.1740 h1         1 EH5       0.069200
     69 HB12        -1.0910     2.2460     0.9450 h1         1 EH5       0.069200
     70 HO11         0.2230     1.0970    -2.2270 ho         1 EH5       0.432000
     71 H31         -3.6210    -0.3790    -1.1710 h1         1 EH5       0.049700
     72 H32         -1.8850    -0.4360    -1.4060 h1         1 EH5       0.049700
     73 H41         -1.5340    -1.2150     0.9160 hc         1 EH5       0.053700
     74 H42         -3.2530    -1.1570     1.2340 hc         1 EH5       0.053700
     75 H61         -5.2500     1.1230    -0.8990 hc         1 EH5       0.069700
     76 H62         -5.0560     0.2910     0.5740 hc         1 EH5       0.069700
     77 H71         -5.9450     2.3270     1.8570 h1         1 EH5       0.082200
     78 H72         -6.1780     3.1570     0.3110 h1         1 EH5       0.082200
     79 H101       -12.3890    -1.2420     1.3330 ha         1 EH5       0.122500
     80 H221       -10.2400    -0.9730     2.6050 ha         1 EH5       0.139000
     81 H321       -10.9110     1.3950    -1.7860 ha         1 EH5       0.139000
     82 H261       -12.7220    -0.0680    -0.8440 ha         1 EH5       0.122500
     83 H111        -4.8120    -3.0330     0.2350 hc         1 EH5       0.048700
     84 H112        -4.3720    -2.4410    -1.3620 hc         1 EH5       0.048700
     85 H231        -5.1760    -4.8120    -1.4620 hc         1 EH5       0.052200
     86 H232        -3.5340    -4.6300    -2.0600 hc         1 EH5       0.052200
     87 H151        -3.4930    -6.5880    -0.7180 h1         1 EH5       0.051700
     88 H191        -1.4510    -5.5900     0.1290 h1         1 EH5       0.080700
     89 H331        -1.2740    -3.6020     1.4660 hc         1 EH5       0.057200
     90 H332        -2.9650    -3.6390     1.9430 hc         1 EH5       0.057200
     91 H271        -1.9250    -2.9480    -0.8650 hc         1 EH5       0.041700
     92 H81         -4.3010    -6.7230     2.8110 h2         1 EH5       0.048700
     93 H82         -3.7270    -7.7430     1.4300 h2         1 EH5       0.048700
     94 H161         3.4520     0.1450     2.2740 ha         1 EH5       0.130000
     95 H341         4.1390     1.6360    -1.6930 ha         1 EH5       0.130000
     96 H311         6.0440     2.2960    -2.9120 h1         1 EH5       0.043700
     97 H312         6.9090     1.1640    -3.9710 h1         1 EH5       0.043700
     98 H313         5.1820     0.9150    -3.6470 h1         1 EH5       0.043700
     99 H371         5.5100    -2.0680     4.3320 h1         1 EH5       0.043700
    100 H372         4.8420    -0.4390     4.1080 h1         1 EH5       0.043700
    101 H373         3.9930    -1.8570     3.4350 h1         1 EH5       0.043700
    102 H361         7.8030    -1.6980    -1.7420 h1         1 EH5       0.036700
    103 H362         8.6680    -0.2870    -1.0750 h1         1 EH5       0.036700
    104 H251        10.3310    -5.4840    -0.3990 ha         1 EH5       0.111500
    105 H171         8.4730    -4.0030    -1.1330 ha         1 EH5       0.114500
    106 H351        10.5760    -0.5800     0.4700 ha         1 EH5       0.114500
    107 H291        12.4310    -2.0680     1.2010 ha         1 EH5       0.111500
    108 O4          -7.5220     0.3340     2.6660 o          1 EH5      -0.485000
    109 O10          7.3000    -1.1920     0.2290 os         1 EH5      -0.326100
    110 H131        12.3130    -4.5200     0.7680 ha         1 EH5       0.110000
@<TRIPOS>BOND
     1     1     2 1   
     2     1     9 1   
     3     1    10 1   
     4     1    58 1   
     5     2     3 1   
     6     2    59 1   
     7     2    60 1   
     8     3     4 ar  
     9     3     5 ar  
    10     4     6 ar  
    11     4    61 1   
    12     5     7 ar  
    13     5    62 1   
    14     6     8 ar  
    15     6    63 1   
    16     7     8 ar  
    17     7    64 1   
    18     8    65 1   
    19     9    20 1   
    20     9    66 1   
    21    10    11 1   
    22    10    13 1   
    23    10    67 1   
    24    11    12 1   
    25    11    68 1   
    26    11    69 1   
    27    12    14 1   
    28    12    16 1   
    29    13    70 1   
    30    14    15 1   
    31    14    71 1   
    32    14    72 1   
    33    15    37 1   
    34    15    73 1   
    35    15    74 1   
    36    16    17 1   
    37    16    18 2   
    38    17    19 1   
    39    17    75 1   
    40    17    76 1   
    41    19    29 1   
    42    19    77 1   
    43    19    78 1   
    44    20    21 2   
    45    20    44 1   
    46    22    23 ar  
    47    22    27 ar  
    48    22    79 1   
    49    23    24 ar  
    50    23    80 1   
    51    24    25 ar  
    52    24    28 1   
    53    25    26 ar  
    54    25    30 1   
    55    26    27 ar  
    56    26    81 1   
    57    27    82 1   
    58    28    29 1   
    59    28   108 2   
    60    29    30 1   
    61    30    31 2   
    62    32    33 1   
    63    32    37 1   
    64    32    83 1   
    65    32    84 1   
    66    33    34 1   
    67    33    85 1   
    68    33    86 1   
    69    34    35 1   
    70    34    38 1   
    71    34    87 1   
    72    35    36 1   
    73    35    40 1   
    74    35    88 1   
    75    36    37 1   
    76    36    89 1   
    77    36    90 1   
    78    37    91 1   
    79    38    39 1   
    80    39    40 1   
    81    39    92 1   
    82    39    93 1   
    83    41    42 ar  
    84    41    46 ar  
    85    41   109 1   
    86    42    43 ar  
    87    42    47 1   
    88    43    44 ar  
    89    43    94 1   
    90    44    45 ar  
    91    45    46 ar  
    92    45    95 1   
    93    46    48 1   
    94    47    50 1   
    95    48    49 1   
    96    49    96 1   
    97    49    97 1   
    98    49    98 1   
    99    50    99 1   
   100    50   100 1   
   101    50   101 1   
   102    51    55 1   
   103    51   102 1   
   104    51   103 1   
   105    51   109 1   
   106    52    53 ar  
   107    52    57 ar  
   108    52   110 1   
   109    53    54 ar  
   110    53   104 1   
   111    54    55 ar  
   112    54   105 1   
   113    55    56 ar  
   114    56    57 ar  
   115    56   106 1   
   116    57   107 1   
@<TRIPOS>SUBSTRUCTURE
     1 EH5         1 TEMP              0 ****  ****    0 ROOT
