@<TRIPOS>MOLECULE
EH5
  110   116     1     0     0
SMALL
abcg2


@<TRIPOS>ATOM
      1 CA           0.7600     3.1510    -0.5340 c3         1 EH5       0.073700
      2 CB           1.1110     4.2530    -1.5380 c3         1 EH5      -0.045100
      3 CG           2.3600     4.9890    -1.1420 ca         1 EH5      -0.085300
      4 CD1          3.5880     4.6910    -1.7270 ca         1 EH5      -0.104000
      5 CD2          2.3190     5.9620    -0.1440 ca         1 EH5      -0.104000
      6 CE1          4.7460     5.3450    -1.3270 ca         1 EH5      -0.106500
      7 CE2          3.4720     6.6200     0.2570 ca         1 EH5      -0.106500
      8 CZ           4.6920     6.3120    -0.3340 ca         1 EH5      -0.109000
      9 N2           1.8490     2.1960    -0.4490 ns         1 EH5      -0.506900
     10 C1          -0.5680     2.4680    -0.8750 c3         1 EH5       0.139300
     11 CB1         -0.9810     1.4710     0.2080 c3         1 EH5       0.072000
     12 N1          -2.3190     0.9500    -0.0080 n          1 EH5      -0.404800
     13 O1          -0.5560     1.8770    -2.1550 oh         1 EH5      -0.654000
     14 C3          -2.4560    -0.3630    -0.6190 c3         1 EH5       0.109000
     15 C4          -2.4470    -1.4920     0.4070 c3         1 EH5      -0.102400
     16 C2          -3.3710     1.6880     0.4020 c          1 EH5       0.609100
     17 C6          -4.7590     1.1420     0.1270 c3         1 EH5      -0.180400
     18 O2          -3.2270     2.7720     0.9540 o          1 EH5      -0.610100
     19 C7          -5.8310     1.9360     0.8620 c3         1 EH5       0.121000
     20 C5           2.4920     1.9070     0.7030 c          1 EH5       0.608700
     21 O3           2.1440     2.3370     1.7920 o          1 EH5      -0.588100
     22 C10        -11.2290    -0.6510     0.0750 ca         1 EH5      -0.099000
     23 C22        -10.0850    -0.7080     0.8700 ca         1 EH5      -0.045500
     24 C14         -9.0770     0.1880     0.5870 ca         1 EH5      -0.147600
     25 C18         -9.1890     1.1070    -0.4440 ca         1 EH5      -0.147600
     26 C32        -10.3130     1.1730    -1.2380 ca         1 EH5      -0.045500
     27 C26        -11.3410     0.2730    -0.9600 ca         1 EH5      -0.099000
     28 C30         -7.7590     0.3860     1.2330 c          1 EH5       0.584600
     29 N3          -7.1540     1.4340     0.5560 n          1 EH5      -0.397400
     30 C9          -7.9440     1.9100    -0.4780 c          1 EH5       0.584600
     31 O7          -7.6430     2.8000    -1.2330 o          1 EH5      -0.485000
     32 C11         -3.9800    -3.0870    -0.8490 c6         1 EH5      -0.075400
     33 C23         -4.0740    -4.4580    -1.5070 c6         1 EH5      -0.066400
     34 C15         -3.7050    -5.6030    -0.5880 c5         1 EH5       0.141300
     35 C19         -2.4850    -5.3700     0.2930 c5         1 EH5       0.140300
     36 C33         -2.3970    -3.9540     0.8590 c6         1 EH5      -0.095400
     37 C27         -2.6080    -2.8800    -0.2080 c6         1 EH5      -0.055700
     38 O5          -4.7100    -5.8300     0.3910 os         1 EH5      -0.474000
     39 C8          -4.0910    -6.4560     1.4840 c5         1 EH5       0.367600
     40 O8          -2.6980    -6.3270     1.3210 os         1 EH5      -0.472000
     41 C12          5.9210    -0.6130     0.4150 ca         1 EH5       0.042100
     42 C24          5.8580     0.3980     1.3790 ca         1 EH5       0.150600
     43 C16          4.7260     1.2020     1.4670 ca         1 EH5      -0.194500
     44 C20          3.6840     1.0150     0.5680 ca         1 EH5      -0.080600
     45 C34          3.7380     0.0190    -0.4010 ca         1 EH5      -0.194500
     46 C28          4.8620    -0.8000    -0.4770 ca         1 EH5       0.150600
     47 O9           6.9340     0.5090     2.1730 os         1 EH5      -0.321600
     48 O6           5.0170    -1.8010    -1.3560 os         1 EH5      -0.321600
     49 C31          3.9780    -2.0550    -2.2810 c3         1 EH5       0.143900
     50 C37          6.9280     1.5050     3.1780 c3         1 EH5       0.143900
     51 C36          8.0470    -0.9610    -0.5030 c3         1 EH5       0.208900
     52 C13         11.0530    -4.0160    -0.5450 ca         1 EH5      -0.102000
     53 C25          9.9170    -4.1420    -1.3360 ca         1 EH5      -0.117500
     54 C17          8.9520    -3.1460    -1.3270 ca         1 EH5      -0.084500
     55 C21          9.1120    -2.0120    -0.5330 ca         1 EH5      -0.089300
     56 C35         10.2490    -1.8970     0.2590 ca         1 EH5      -0.084500
     57 C29         11.2190    -2.8920     0.2520 ca         1 EH5      -0.117500
     58 HA1          0.6490     3.6050     0.4530 h1         1 EH5       0.096700
     59 HB1          1.2250     3.8220    -2.5360 hc         1 EH5       0.061700
     60 HB2          0.2680     4.9470    -1.5910 hc         1 EH5       0.061700
     61 HD11         3.6400     3.9440    -2.5110 ha         1 EH5       0.110000
     62 HD21         1.3710     6.2090     0.3210 ha         1 EH5       0.110000
     63 HE11         5.6910     5.1010    -1.7960 ha         1 EH5       0.113000
     64 HE21         3.4200     7.3760     1.0300 ha         1 EH5       0.113000
     65 HZ1          5.5930     6.8270    -0.0240 ha         1 EH5       0.112000
     66 HN21         2.3110     1.9520    -1.3110 hn         1 EH5       0.310500
     67 H11         -1.3240     3.2560    -0.9200 h1         1 EH5       0.098700
     68 HB11        -0.2870     0.6270     0.2320 h1         1 EH5       0.069200
     69 HB12        -0.9220     1.9490     1.1870 h1         1 EH5       0.069200
     70 HO11         0.0770     1.1510    -2.1590 ho         1 EH5       0.432000
     71 H31         -3.3600    -0.3850    -1.2270 h1         1 EH5       0.049700
     72 H32         -1.6340    -0.5010    -1.3220 h1         1 EH5       0.049700
     73 H41         -1.5060    -1.4520     0.9640 hc         1 EH5       0.053700
     74 H42         -3.2420    -1.3300     1.1430 hc         1 EH5       0.053700
     75 H61         -4.9400     1.1860    -0.9510 hc         1 EH5       0.069700
     76 H62         -4.8320     0.0890     0.4060 hc         1 EH5       0.069700
     77 H71         -5.6880     1.8790     1.9400 h1         1 EH5       0.082200
     78 H72         -5.7990     2.9880     0.5880 h1         1 EH5       0.082200
     79 H101       -12.0450    -1.3350     0.2650 ha         1 EH5       0.122500
     80 H221        -9.9990    -1.4260     1.6740 ha         1 EH5       0.139000
     81 H321       -10.3990     1.8890    -2.0440 ha         1 EH5       0.139000
     82 H261       -12.2420     0.2920    -1.5580 ha         1 EH5       0.122500
     83 H111        -4.7550    -2.9720    -0.0830 hc         1 EH5       0.048700
     84 H112        -4.1800    -2.3270    -1.6070 hc         1 EH5       0.048700
     85 H231        -5.0690    -4.6280    -1.9240 hc         1 EH5       0.052200
     86 H232        -3.3810    -4.4910    -2.3530 hc         1 EH5       0.052200
     87 H151        -3.5560    -6.5110    -1.1900 h1         1 EH5       0.051700
     88 H191        -1.5590    -5.6300    -0.2250 h1         1 EH5       0.080700
     89 H331        -1.4260    -3.8240     1.3440 hc         1 EH5       0.057200
     90 H332        -3.1540    -3.8150     1.6390 hc         1 EH5       0.057200
     91 H271        -1.8420    -3.0030    -0.9870 hc         1 EH5       0.041700
     92 H81         -4.4390    -5.9700     2.4040 h2         1 EH5       0.048700
     93 H82         -4.3330    -7.5250     1.5330 h2         1 EH5       0.048700
     94 H161         4.6470     1.9840     2.2080 ha         1 EH5       0.130000
     95 H341         2.9000    -0.1430    -1.0650 ha         1 EH5       0.130000
     96 H311         3.7980    -1.2000    -2.9380 h1         1 EH5       0.043700
     97 H312         4.3040    -2.8980    -2.8850 h1         1 EH5       0.043700
     98 H313         3.0430    -2.3210    -1.7810 h1         1 EH5       0.043700
     99 H371         7.8790     1.4210     3.6980 h1         1 EH5       0.043700
    100 H372         6.8450     2.5100     2.7570 h1         1 EH5       0.043700
    101 H373         6.1190     1.3530     3.8970 h1         1 EH5       0.043700
    102 H361         7.6520    -0.7850    -1.5080 h1         1 EH5       0.036700
    103 H362         8.4490    -0.0130    -0.1310 h1         1 EH5       0.036700
    104 H251         9.7840    -5.0160    -1.9600 ha         1 EH5       0.111500
    105 H171         8.0680    -3.2440    -1.9460 ha         1 EH5       0.114500
    106 H351        10.3820    -1.0200     0.8830 ha         1 EH5       0.114500
    107 H291        12.1020    -2.7880     0.8690 ha         1 EH5       0.111500
    108 O4          -7.2740    -0.2160     2.1580 o          1 EH5      -0.485000
    109 O10          7.0030    -1.4280     0.3590 os         1 EH5      -0.326100
    110 H131        11.8080    -4.7910    -0.5530 ha         1 EH5       0.110000
@<TRIPOS>BOND
     1     1     2 1   
     2     1     9 1   
     3     1    10 1   
     4     1    58 1   
     5     2     3 1   
     6     2    59 1   
     7     2    60 1   
     8     3     4 ar  
     9     3     5 ar  
    10     4     6 ar  
    11     4    61 1   
    12     5     7 ar  
    13     5    62 1   
    14     6     8 ar  
    15     6    63 1   
    16     7     8 ar  
    17     7    64 1   
    18     8    65 1   
    19     9    20 1   
    20     9    66 1   
    21    10    11 1   
    22    10    13 1   
    23    10    67 1   
    24    11    12 1   
    25    11    68 1   
    26    11    69 1   
    27    12    14 1   
    28    12    16 1   
    29    13    70 1   
    30    14    15 1   
    31    14    71 1   
    32    14    72 1   
    33    15    37 1   
    34    15    73 1   
    35    15    74 1   
    36    16    17 1   
    37    16    18 2   
    38    17    19 1   
    39    17    75 1   
    40    17    76 1   
    41    19    29 1   
    42    19    77 1   
    43    19    78 1   
    44    20    21 2   
    45    20    44 1   
    46    22    23 ar  
    47    22    27 ar  
    48    22    79 1   
    49    23    24 ar  
    50    23    80 1   
    51    24    25 ar  
    52    24    28 1   
    53    25    26 ar  
    54    25    30 1   
    55    26    27 ar  
    56    26    81 1   
    57    27    82 1   
    58    28    29 1   
    59    28   108 2   
    60    29    30 1   
    61    30    31 2   
    62    32    33 1   
    63    32    37 1   
    64    32    83 1   
    65    32    84 1   
    66    33    34 1   
    67    33    85 1   
    68    33    86 1   
    69    34    35 1   
    70    34    38 1   
    71    34    87 1   
    72    35    36 1   
    73    35    40 1   
    74    35    88 1   
    75    36    37 1   
    76    36    89 1   
    77    36    90 1   
    78    37    91 1   
    79    38    39 1   
    80    39    40 1   
    81    39    92 1   
    82    39    93 1   
    83    41    42 ar  
    84    41    46 ar  
    85    41   109 1   
    86    42    43 ar  
    87    42    47 1   
    88    43    44 ar  
    89    43    94 1   
    90    44    45 ar  
    91    45    46 ar  
    92    45    95 1   
    93    46    48 1   
    94    47    50 1   
    95    48    49 1   
    96    49    96 1   
    97    49    97 1   
    98    49    98 1   
    99    50    99 1   
   100    50   100 1   
   101    50   101 1   
   102    51    55 1   
   103    51   102 1   
   104    51   103 1   
   105    51   109 1   
   106    52    53 ar  
   107    52    57 ar  
   108    52   110 1   
   109    53    54 ar  
   110    53   104 1   
   111    54    55 ar  
   112    54   105 1   
   113    55    56 ar  
   114    56    57 ar  
   115    56   106 1   
   116    57   107 1   
@<TRIPOS>SUBSTRUCTURE
     1 EH5         1 TEMP              0 ****  ****    0 ROOT
