@<TRIPOS>MOLECULE
EH6
   36    38     1     0     0
SMALL
abcg2


@<TRIPOS>ATOM
      1 C13          6.5260    -7.7580   -21.8590 ca         1 EH6      -0.072000
      2 C15          4.3600    -6.7930   -22.0150 ca         1 EH6       0.171000
      3 C17          4.3330    -6.5280   -20.6520 cp         1 EH6      -0.107000
      4 C20          1.8820    -3.8830   -19.5380 ca         1 EH6      -0.110500
      5 C21          1.0190    -4.6230   -18.7420 ca         1 EH6      -0.104000
      6 C22          1.2290    -5.9870   -18.5800 ca         1 EH6      -0.110500
      7 C04          6.2350    -6.4750   -16.2710 ca         1 EH6      -0.196600
      8 C05          6.9030    -7.0890   -15.2150 ca         1 EH6      -0.056000
      9 C06          7.4240    -8.3690   -15.3070 ca         1 EH6      -0.184000
     10 C07          7.2550    -9.0730   -16.4920 ca         1 EH6      -0.098000
     11 C08          6.5990    -8.4960   -17.5650 ca         1 EH6      -0.209000
     12 C09          6.0990    -7.1880   -17.4870 ca         1 EH6       0.335000
     13 C11          5.4490    -6.8990   -19.8720 ca         1 EH6       0.381000
     14 C12          6.5450    -7.5020   -20.5000 ca         1 EH6      -0.193000
     15 C14          5.4330    -7.4130   -22.6380 ca         1 EH6      -0.185000
     16 C18          3.1720    -5.8680   -20.0070 cp         1 EH6      -0.022000
     17 C19          2.9530    -4.5030   -20.1680 ca         1 EH6      -0.075500
     18 C23          2.3020    -6.6050   -19.2070 ca         1 EH6      -0.075500
     19 N10          5.4230    -6.5940   -18.5290 nu         1 EH6      -0.999000
     20 O01          4.8800    -4.6320   -16.9360 o          1 EH6      -0.707500
     21 O03          5.9660    -4.4970   -15.0030 o          1 EH6      -0.707500
     22 CL1          2.9830    -6.3750   -22.9870 cl         1 EH6      -0.235000
     23 H1           7.3860    -8.2220   -22.3240 ha         1 EH6       0.099000
     24 H2           1.7250    -2.8200   -19.6670 ha         1 EH6       0.100500
     25 H3           0.1840    -4.1410   -18.2500 ha         1 EH6       0.098000
     26 H4           0.5580    -6.5710   -17.9640 ha         1 EH6       0.100500
     27 H5           7.0090    -6.5350   -14.2910 ha         1 EH6       0.128000
     28 H6           7.9390    -8.8160   -14.4670 ha         1 EH6       0.090000
     29 H7           7.6280   -10.0850   -16.5860 ha         1 EH6       0.083000
     30 H8           6.4540    -9.0810   -18.4630 ha         1 EH6       0.099000
     31 H9           7.4300    -7.7470   -19.9300 ha         1 EH6       0.126000
     32 H10          5.4160    -7.6130   -23.7000 ha         1 EH6       0.113000
     33 H11          3.6290    -3.9210   -20.7820 ha         1 EH6       0.111000
     34 H12          2.4660    -7.6670   -19.0750 ha         1 EH6       0.111000
     35 H13          4.9480    -5.7360   -18.2090 hn         1 EH6       0.580000
     36 C02          5.6540    -5.0830   -16.0490 c          1 EH6       0.720600
@<TRIPOS>BOND
     1     1    14 ar  
     2     1    15 ar  
     3     1    23 1   
     4     2     3 ar  
     5     2    15 ar  
     6     2    22 1   
     7     3    13 ar  
     8     3    16 1   
     9     4     5 ar  
    10     4    17 ar  
    11     4    24 1   
    12     5     6 ar  
    13     5    25 1   
    14     6    18 ar  
    15     6    26 1   
    16     7     8 ar  
    17     7    12 ar  
    18     7    36 1   
    19     8     9 ar  
    20     8    27 1   
    21     9    10 ar  
    22     9    28 1   
    23    10    11 ar  
    24    10    29 1   
    25    11    12 ar  
    26    11    30 1   
    27    12    19 1   
    28    13    14 ar  
    29    13    19 1   
    30    14    31 1   
    31    15    32 1   
    32    16    17 ar  
    33    16    18 ar  
    34    17    33 1   
    35    18    34 1   
    36    19    35 1   
    37    20    36 1   
    38    21    36 1   
@<TRIPOS>SUBSTRUCTURE
     1 EH6         1 TEMP              0 ****  ****    0 ROOT
