@<TRIPOS>MOLECULE
EH6
   36    38     1     0     0
SMALL
No Charge or Current Charge


@<TRIPOS>ATOM
      1 C13          6.5890    -7.6820   -21.9070 ca         1 EH6      -0.072000
      2 C15          4.3810    -6.6760   -22.0660 ca         1 EH6       0.171000
      3 C17          4.3400    -6.4750   -20.6610 cp         1 EH6      -0.107000
      4 C20          1.6870    -3.8870   -19.7060 ca         1 EH6      -0.110500
      5 C21          0.9090    -4.6100   -18.7870 ca         1 EH6      -0.104000
      6 C22          1.2450    -5.9380   -18.4750 ca         1 EH6      -0.110500
      7 C04          6.2720    -6.5260   -16.2250 ca         1 EH6      -0.196600
      8 C05          6.9440    -7.1230   -15.1330 ca         1 EH6      -0.056000
      9 C06          7.4350    -8.4360   -15.2240 ca         1 EH6      -0.184000
     10 C07          7.2560    -9.1730   -16.4010 ca         1 EH6      -0.098000
     11 C08          6.5960    -8.5880   -17.4920 ca         1 EH6      -0.209000
     12 C09          6.1210    -7.2650   -17.4220 ca         1 EH6       0.335000
     13 C11          5.4490    -6.9160   -19.8880 ca         1 EH6       0.381000
     14 C12          6.5660    -7.4960   -20.5180 ca         1 EH6      -0.193000
     15 C14          5.4930    -7.2770   -22.6780 ca         1 EH6      -0.185000
     16 C18          3.1550    -5.8310   -20.0150 cp         1 EH6      -0.022000
     17 C19          2.8010    -4.4920   -20.3130 ca         1 EH6      -0.075500
     18 C23          2.3590    -6.5420   -19.0840 ca         1 EH6      -0.075500
     19 N10          5.4590    -6.7040   -18.5090 nu         1 EH6      -0.999000
     20 O01          4.7530    -4.7870   -16.7230 o          1 EH6      -0.707500
     21 O03          6.3220    -4.3610   -15.3150 o          1 EH6      -0.707500
     22 Cl1          3.0320    -6.2110   -23.1030 cl         1 EH6      -0.235000
     23 H1           7.4570    -8.1340   -22.3840 ha         1 EH6       0.099000
     24 H2           1.4290    -2.8580   -19.9470 ha         1 EH6       0.100500
     25 H3           0.0470    -4.1420   -18.3160 ha         1 EH6       0.098000
     26 H4           0.6450    -6.4990   -17.7630 ha         1 EH6       0.100500
     27 H5           7.0800    -6.5720   -14.2040 ha         1 EH6       0.128000
     28 H6           7.9460    -8.8840   -14.3750 ha         1 EH6       0.090000
     29 H7           7.6210   -10.1950   -16.4670 ha         1 EH6       0.083000
     30 H8           6.4400    -9.1800   -18.3880 ha         1 EH6       0.099000
     31 H9           7.4340    -7.7840   -19.9340 ha         1 EH6       0.126000
     32 H10          5.5040    -7.4240   -23.7550 ha         1 EH6       0.113000
     33 H11          3.3990    -3.9230   -21.0210 ha         1 EH6       0.111000
     34 H12          2.6100    -7.5710   -18.8380 ha         1 EH6       0.111000
     35 H13          4.8720    -5.9130   -18.2070 hn         1 EH6       0.580000
     36 C02          5.7470    -5.1150   -16.0870 c          1 EH6       0.720600
@<TRIPOS>BOND
     1     1    14 ar  
     2     1    15 ar  
     3     1    23 1   
     4     2     3 ar  
     5     2    15 ar  
     6     2    22 1   
     7     3    13 ar  
     8     3    16 1   
     9     4     5 ar  
    10     4    17 ar  
    11     4    24 1   
    12     5     6 ar  
    13     5    25 1   
    14     6    18 ar  
    15     6    26 1   
    16     7     8 ar  
    17     7    12 ar  
    18     7    36 1   
    19     8     9 ar  
    20     8    27 1   
    21     9    10 ar  
    22     9    28 1   
    23    10    11 ar  
    24    10    29 1   
    25    11    12 ar  
    26    11    30 1   
    27    12    19 1   
    28    13    14 ar  
    29    13    19 1   
    30    14    31 1   
    31    15    32 1   
    32    16    17 ar  
    33    16    18 ar  
    34    17    33 1   
    35    18    34 1   
    36    19    35 1   
    37    20    36 1   
    38    21    36 1   
@<TRIPOS>SUBSTRUCTURE
     1 EH6         1 TEMP              0 ****  ****    0 ROOT
