@<TRIPOS>MOLECULE
EH8
   31    33     1     0     0
SMALL
abcg2


@<TRIPOS>ATOM
      1 N1          -1.4820    -2.0550     0.0660 na         1 EH8      -0.154500
      2 N3           0.6500    -2.6030    -0.0120 nc         1 EH8      -0.666000
      3 C4           0.5480    -1.2430    -0.0330 cc         1 EH8       0.323500
      4 C5          -0.7810    -0.8760     0.0240 cd         1 EH8      -0.160000
      5 C6           1.7400    -0.3960    -0.1270 ca         1 EH8      -0.112500
      6 C7          -1.4160     0.4390     0.0980 ca         1 EH8       0.029000
      7 C8           2.9330    -0.8120     0.4680 ca         1 EH8      -0.090000
      8 C10          4.0510     1.1760    -0.3020 ca         1 EH8      -0.107000
      9 C13         -2.9140    -2.2270     0.1900 c3         1 EH8       0.057900
     10 C15         -1.6000     2.6190     1.0730 ca         1 EH8       0.332400
     11 C17         -3.0100     2.0770    -0.6190 ca         1 EH8       0.332400
     12 C2          -0.5760    -3.0510     0.0500 cd         1 EH8       0.401400
     13 C9           4.0760    -0.0320     0.3840 ca         1 EH8      -0.117000
     14 C11          2.8720     1.5930    -0.9080 ca         1 EH8      -0.117000
     15 C12          1.7290     0.8120    -0.8260 ca         1 EH8      -0.090000
     16 C14         -0.9850     1.3800     1.0320 ca         1 EH8      -0.152000
     17 N16         -2.5980     2.9730     0.2690 nb         1 EH8      -0.661000
     18 C18         -2.4580     0.8120    -0.7480 ca         1 EH8      -0.152000
     19 H1           2.9610    -1.7510     1.0060 ha         1 EH8       0.120500
     20 H2           4.9430     1.7850    -0.3690 ha         1 EH8       0.111000
     21 H3          -3.4230    -1.9880    -0.7410 h1         1 EH8       0.056033
     22 H4          -3.1180    -3.2640     0.4420 h1         1 EH8       0.056033
     23 H5          -3.3050    -1.5940     0.9820 h1         1 EH8       0.056033
     24 H6          -1.2730     3.3590     1.7950 h4         1 EH8       0.020600
     25 H7          -3.8210     2.3780    -1.2730 h4         1 EH8       0.020600
     26 H8          -0.8690    -4.0900     0.0890 h5         1 EH8       0.056100
     27 H9           4.9900    -0.3680     0.8570 ha         1 EH8       0.112000
     28 H10          2.8450     2.5250    -1.4580 ha         1 EH8       0.112000
     29 H11          0.8270     1.1410    -1.3260 ha         1 EH8       0.120500
     30 H12         -0.1870     1.1520     1.7250 ha         1 EH8       0.129500
     31 H13         -2.8320     0.1460    -1.5140 ha         1 EH8       0.129500
@<TRIPOS>BOND
     1     1     4 1   
     2     1     9 1   
     3     1    12 1   
     4     2     3 1   
     5     2    12 2   
     6     3     4 2   
     7     3     5 1   
     8     4     6 1   
     9     5     7 ar  
    10     5    15 ar  
    11     6    16 ar  
    12     6    18 ar  
    13     7    13 ar  
    14     7    19 1   
    15     8    13 ar  
    16     8    14 ar  
    17     8    20 1   
    18     9    21 1   
    19     9    22 1   
    20     9    23 1   
    21    10    16 ar  
    22    10    17 ar  
    23    10    24 1   
    24    11    17 ar  
    25    11    18 ar  
    26    11    25 1   
    27    12    26 1   
    28    13    27 1   
    29    14    15 ar  
    30    14    28 1   
    31    15    29 1   
    32    16    30 1   
    33    18    31 1   
@<TRIPOS>SUBSTRUCTURE
     1 EH8         1 TEMP              0 ****  ****    0 ROOT
