@<TRIPOS>MOLECULE
EH8
   31    33     1     0     0
SMALL
No Charge or Current Charge


@<TRIPOS>ATOM
      1 N1          -1.4960    -2.1190    -0.1180 na         1 EH8      -0.154500
      2 N3           0.6670    -2.6890    -0.0800 nc         1 EH8      -0.666000
      3 C4           0.5280    -1.3340    -0.0710 cc         1 EH8       0.323500
      4 C5          -0.7870    -0.9140    -0.1090 cd         1 EH8      -0.160000
      5 C6           1.6780    -0.4230    -0.0890 ca         1 EH8      -0.112500
      6 C7          -1.3510     0.4480     0.0750 ca         1 EH8       0.029000
      7 C8           2.7940    -0.6740     0.7370 ca         1 EH8      -0.090000
      8 C10          3.9470     1.2590    -0.1920 ca         1 EH8      -0.107000
      9 C13         -2.9510    -2.3120    -0.0060 c3         1 EH8       0.057900
     10 C15         -1.2460     2.7170     0.9570 ca         1 EH8       0.332400
     11 C17         -3.1070     2.1030    -0.2640 ca         1 EH8       0.332400
     12 C2          -0.5700    -3.1570    -0.1170 cd         1 EH8       0.401400
     13 C9           3.9180     0.1690     0.6930 ca         1 EH8      -0.117000
     14 C11          2.8560     1.4980    -1.0420 ca         1 EH8      -0.117000
     15 C12          1.7320     0.6540    -1.0000 ca         1 EH8      -0.090000
     16 C14         -0.6710     1.4460     0.8040 ca         1 EH8      -0.152000
     17 N16         -2.4460     3.0520     0.4340 nb         1 EH8      -0.661000
     18 C18         -2.6050     0.8060    -0.4610 ca         1 EH8      -0.152000
     19 H1           2.7850    -1.5200     1.4210 ha         1 EH8       0.120500
     20 H2           4.8180     1.9110    -0.2260 ha         1 EH8       0.111000
     21 H3          -3.4190    -2.1780    -0.9890 h1         1 EH8       0.056033
     22 H4          -3.1650    -3.3260     0.3540 h1         1 EH8       0.056033
     23 H5          -3.3710    -1.5910     0.7070 h1         1 EH8       0.056033
     24 H6          -0.7320     3.4910     1.5260 h4         1 EH8       0.020600
     25 H7          -4.0690     2.3930    -0.6860 h4         1 EH8       0.020600
     26 H8          -0.8700    -4.1990    -0.1150 h5         1 EH8       0.056100
     27 H9           4.7680    -0.0260     1.3440 ha         1 EH8       0.112000
     28 H10          2.8820     2.3320    -1.7400 ha         1 EH8       0.112000
     29 H11          0.9000     0.8390    -1.6770 ha         1 EH8       0.120500
     30 H12          0.2790     1.2470     1.2860 ha         1 EH8       0.129500
     31 H13         -3.1810     0.1130    -1.0630 ha         1 EH8       0.129500
@<TRIPOS>BOND
     1     1     4 1   
     2     1     9 1   
     3     1    12 1   
     4     2     3 1   
     5     2    12 2   
     6     3     4 2   
     7     3     5 1   
     8     4     6 1   
     9     5     7 ar  
    10     5    15 ar  
    11     6    16 ar  
    12     6    18 ar  
    13     7    13 ar  
    14     7    19 1   
    15     8    13 ar  
    16     8    14 ar  
    17     8    20 1   
    18     9    21 1   
    19     9    22 1   
    20     9    23 1   
    21    10    16 ar  
    22    10    17 ar  
    23    10    24 1   
    24    11    17 ar  
    25    11    18 ar  
    26    11    25 1   
    27    12    26 1   
    28    13    27 1   
    29    14    15 ar  
    30    14    28 1   
    31    15    29 1   
    32    16    30 1   
    33    18    31 1   
@<TRIPOS>SUBSTRUCTURE
     1 EH8         1 TEMP              0 ****  ****    0 ROOT
