@<TRIPOS>MOLECULE
EH9
   43    44     1     0     0
SMALL
bcc


@<TRIPOS>ATOM
      1 C1           3.0260    -2.1110    -0.1390 ca         1 EH9       0.780200
      2 C2           2.1970    -1.0790    -0.6180 ca         1 EH9      -0.234200
      3 C3           1.6220    -0.2570     0.3410 ca         1 EH9       0.451800
      4 C5           2.5790    -1.3520     1.9860 ca         1 EH9       0.707900
      5 C14          1.0300     0.3230    -1.6760 cc         1 EH9       0.397700
      6 N4           1.7820    -0.3510     1.6600 nb         1 EH9      -0.748000
      7 N6           3.1960    -2.2160     1.1830 nb         1 EH9      -0.830000
      8 N13          0.8720     0.6420    -0.3570 na         1 EH9      -0.244000
      9 N15          1.8140    -0.6980    -1.8760 nd         1 EH9      -0.553100
     10 C20          0.0740     1.7240     0.2010 c3         1 EH9       0.022000
     11 C21         -1.3890     1.5890    -0.2150 c3         1 EH9      -0.089400
     12 N24          3.6430    -2.9730    -0.9490 nv         1 EH9      -0.955500
     13 C26         -2.0170     0.2480     0.1420 c3         1 EH9      -0.076400
     14 C28         -3.5030     0.2050    -0.1940 c3         1 EH9      -0.074400
     15 C30         -4.1600    -1.1250     0.1460 c3         1 EH9      -0.075400
     16 C31         -5.6490    -1.1580    -0.1800 c3         1 EH9      -0.074400
     17 C34         -6.3010    -2.4900     0.1650 c3         1 EH9      -0.088100
     18 C36          0.6940     3.0830    -0.1820 c3         1 EH9       0.146100
     19 O38         -0.0350     4.1310     0.4180 oh         1 EH9      -0.588800
     20 C40          2.1340     3.2030     0.2820 c3         1 EH9      -0.092100
     21 H5           2.7590    -1.4940     3.0470 h5         1 EH9       0.046100
     22 H14          0.5360     0.8810    -2.4570 h5         1 EH9       0.063800
     23 H20          0.1460     1.6130     1.2860 h1         1 EH9       0.105700
     24 H211        -1.9550     2.3780     0.2860 hc         1 EH9       0.045200
     25 H212        -1.4920     1.7740    -1.2910 hc         1 EH9       0.045200
     26 H241         3.5000    -2.9450    -1.9430 hn         1 EH9       0.451800
     27 H242         4.1930    -3.7220    -0.5670 hn         1 EH9       0.451800
     28 H261        -1.5060    -0.5630    -0.3850 hc         1 EH9       0.050700
     29 H262        -1.8790     0.0530     1.2110 hc         1 EH9       0.050700
     30 H281        -4.0170     1.0120     0.3400 hc         1 EH9       0.035700
     31 H282        -3.6370     0.4150    -1.2610 hc         1 EH9       0.035700
     32 H301        -3.6530    -1.9320    -0.3940 hc         1 EH9       0.040200
     33 H302        -4.0190    -1.3400     1.2120 hc         1 EH9       0.040200
     34 H311        -6.1530    -0.3510     0.3600 hc         1 EH9       0.036200
     35 H312        -5.7890    -0.9440    -1.2440 hc         1 EH9       0.036200
     36 H341        -5.8340    -3.3110    -0.3820 hc         1 EH9       0.032033
     37 H342        -6.2080    -2.7090     1.2300 hc         1 EH9       0.032033
     38 H343        -7.3640    -2.4930    -0.0800 hc         1 EH9       0.032033
     39 H36          0.6670     3.1770    -1.2780 h1         1 EH9       0.026700
     40 HO38        -0.8580     4.2580    -0.0630 ho         1 EH9       0.403000
     41 H401         2.7720     2.4650    -0.2020 hc         1 EH9       0.051700
     42 H402         2.5280     4.1890     0.0330 hc         1 EH9       0.051700
     43 H403         2.2150     3.0640     1.3620 hc         1 EH9       0.051700
@<TRIPOS>BOND
     1     1     2 ar  
     2     1     7 ar  
     3     1    12 1   
     4     2     3 ar  
     5     2     9 1   
     6     3     6 ar  
     7     3     8 1   
     8     4     6 ar  
     9     4     7 ar  
    10     4    21 1   
    11     5     8 1   
    12     5     9 2   
    13     5    22 1   
    14     8    10 1   
    15    10    11 1   
    16    10    18 1   
    17    10    23 1   
    18    11    13 1   
    19    11    24 1   
    20    11    25 1   
    21    12    26 1   
    22    12    27 1   
    23    13    14 1   
    24    13    28 1   
    25    13    29 1   
    26    14    15 1   
    27    14    30 1   
    28    14    31 1   
    29    15    16 1   
    30    15    32 1   
    31    15    33 1   
    32    16    17 1   
    33    16    34 1   
    34    16    35 1   
    35    17    36 1   
    36    17    37 1   
    37    17    38 1   
    38    18    19 1   
    39    18    20 1   
    40    18    39 1   
    41    19    40 1   
    42    20    41 1   
    43    20    42 1   
    44    20    43 1   
@<TRIPOS>SUBSTRUCTURE
     1 EH9         1 TEMP              0 ****  ****    0 ROOT
