@<TRIPOS>MOLECULE
EH9
   43    44     1     0     0
SMALL
No Charge or Current Charge


@<TRIPOS>ATOM
      1 C1           2.9850    -2.1340    -0.1150 ca         1 EH9       0.451900
      2 C2           2.2110    -1.0580    -0.5980 ca         1 EH9      -0.103600
      3 C3           1.5940    -0.2450     0.3210 ca         1 EH9       0.123500
      4 C5           2.4640    -1.5010     2.0220 ca         1 EH9       0.181900
      5 C14          1.1590     0.4090    -1.7790 cc         1 EH9       0.397700
      6 N4           1.7040    -0.4430     1.6500 nb         1 EH9      -0.222000
      7 N6           3.1130    -2.3630     1.2010 nb         1 EH9      -0.304000
      8 N13          0.9310     0.6850    -0.4290 na         1 EH9      -0.273300
      9 N15          1.9530    -0.6700    -1.9210 nd         1 EH9      -0.553100
     10 C20          0.1210     1.7760     0.1630 c3         1 EH9       0.051300
     11 C21         -1.3760     1.6390    -0.2440 c3         1 EH9      -0.089400
     12 N24          3.6330    -2.9990    -0.9400 nv         1 EH9      -1.065900
     13 C26         -2.0140     0.2840     0.1480 c3         1 EH9      -0.076400
     14 C28         -3.5150     0.2000    -0.2060 c3         1 EH9      -0.074400
     15 C30         -4.1510    -1.1530     0.1820 c3         1 EH9      -0.075400
     16 C31         -5.6520    -1.2380    -0.1720 c3         1 EH9      -0.074400
     17 C34         -6.2870    -2.5880     0.2140 c3         1 EH9      -0.088100
     18 C36          0.7210     3.1820    -0.1660 c3         1 EH9       0.169300
     19 O38         -0.0240     4.2140     0.4940 oh         1 EH9      -0.651000
     20 C40          2.1990     3.3270     0.2590 c3         1 EH9      -0.092100
     21 H5           2.5630    -1.6770     3.0920 h5         1 EH9       0.046100
     22 H14          0.7360     1.0070    -2.5780 h5         1 EH9       0.063800
     23 H20          0.1640     1.6690     1.2550 h1         1 EH9       0.105700
     24 H211        -1.9570     2.4370     0.2330 hc         1 EH9       0.045200
     25 H212        -1.4730     1.7840    -1.3280 hc         1 EH9       0.045200
     26 H241         3.3660    -2.9740    -1.9210 hn         1 EH9       0.507000
     27 H242         3.9090    -3.9030    -0.5660 hn         1 EH9       0.507000
     28 H261        -1.4870    -0.5340    -0.3580 hc         1 EH9       0.050700
     29 H262        -1.8890     0.1260     1.2270 hc         1 EH9       0.050700
     30 H281        -4.0520     1.0100     0.3040 hc         1 EH9       0.035700
     31 H282        -3.6400     0.3610    -1.2840 hc         1 EH9       0.035700
     32 H301        -3.6150    -1.9630    -0.3280 hc         1 EH9       0.040200
     33 H302        -4.0260    -1.3140     1.2600 hc         1 EH9       0.040200
     34 H311        -6.1930    -0.4310     0.3370 hc         1 EH9       0.036200
     35 H312        -5.7810    -1.0800    -1.2500 hc         1 EH9       0.036200
     36 H341        -5.7900    -3.4150    -0.3080 hc         1 EH9       0.032033
     37 H342        -6.2050    -2.7600     1.2940 hc         1 EH9       0.032033
     38 H343        -7.3500    -2.6010    -0.0550 hc         1 EH9       0.032033
     39 H36          0.6690     3.3330    -1.2530 h1         1 EH9       0.026700
     40 HO38        -0.8730     4.3140     0.0100 ho         1 EH9       0.442000
     41 H401         2.8390     2.6290    -0.2940 hc         1 EH9       0.051700
     42 H402         2.5600     4.3420     0.0540 hc         1 EH9       0.051700
     43 H403         2.3180     3.1290     1.3310 hc         1 EH9       0.051700
@<TRIPOS>BOND
     1     1     2 ar  
     2     1     7 ar  
     3     1    12 1   
     4     2     3 ar  
     5     2     9 1   
     6     3     6 ar  
     7     3     8 1   
     8     4     6 ar  
     9     4     7 ar  
    10     4    21 1   
    11     5     8 1   
    12     5     9 2   
    13     5    22 1   
    14     8    10 1   
    15    10    11 1   
    16    10    18 1   
    17    10    23 1   
    18    11    13 1   
    19    11    24 1   
    20    11    25 1   
    21    12    26 1   
    22    12    27 1   
    23    13    14 1   
    24    13    28 1   
    25    13    29 1   
    26    14    15 1   
    27    14    30 1   
    28    14    31 1   
    29    15    16 1   
    30    15    32 1   
    31    15    33 1   
    32    16    17 1   
    33    16    34 1   
    34    16    35 1   
    35    17    36 1   
    36    17    37 1   
    37    17    38 1   
    38    18    19 1   
    39    18    20 1   
    40    18    39 1   
    41    19    40 1   
    42    20    41 1   
    43    20    42 1   
    44    20    43 1   
@<TRIPOS>SUBSTRUCTURE
     1 EH9         1 TEMP              0 ****  ****    0 ROOT
