@<TRIPOS>MOLECULE
EHA
   69    73     1     0     0
SMALL
No Charge or Current Charge


@<TRIPOS>ATOM
      1 CAN         -9.8150    -2.3370     0.5670 ca         1 EHA      -0.068500
      2 CAO        -10.1220    -3.6430     0.1490 ca         1 EHA      -0.123500
      3 CAP         -9.3860    -4.2440    -0.8850 ca         1 EHA      -0.091000
      4 CAQ         -8.3450    -3.5340    -1.5050 ca         1 EHA      -0.123500
      5 CAR         -8.0350    -2.2280    -1.0890 ca         1 EHA      -0.068500
      6 CAL         -8.7590    -1.6200    -0.0370 ca         1 EHA      -0.165600
      7 CAK         -8.4500    -0.2100     0.4150 c          1 EHA       0.597300
      8 OAM         -9.3430     0.5170     0.8360 o          1 EHA      -0.526100
      9 CAH         -7.0270     0.2950     0.3410 ca         1 EHA      -0.185600
     10 CAG         -5.9330    -0.5710     0.5410 ca         1 EHA      -0.035000
     11 CAI         -6.7750     1.6590     0.1050 ca         1 EHA      -0.064000
     12 CAJ         -5.4580     2.1450     0.0460 ca         1 EHA      -0.120000
     13 CAD         -4.3530     1.2810     0.2350 ca         1 EHA       0.030000
     14 CAE         -3.0070     1.7470     0.1830 ca         1 EHA      -0.124300
     15 CBK         -2.6740     3.2280    -0.0670 c3         1 EHA      -0.019100
     16 CBL         -2.6760     3.5820    -1.5710 c3         1 EHA      -0.073400
     17 CBM         -2.3590     5.0650    -1.8450 c3         1 EHA      -0.089100
     18 CAC         -4.6120    -0.0890     0.4800 ca         1 EHA      -0.092000
     19 CAB         -3.5510    -0.9880     0.6670 ca         1 EHA      -0.059000
     20 CAA         -2.2270    -0.5400     0.5990 ca         1 EHA      -0.181000
     21 CAF         -1.9460     0.8210     0.3540 ca         1 EHA       0.168100
     22 OBJ         -0.6430     1.2790     0.2690 os         1 EHA      -0.347100
     23 CBI          0.4970     0.4150     0.4080 c3         1 EHA       0.165600
     24 CBH          1.7560     1.2820     0.2430 c3         1 EHA      -0.089400
     25 CBG          3.0530     0.4650     0.3700 c3         1 EHA       0.176600
     26 OBF          4.1570     1.3710     0.2000 os         1 EHA      -0.364100
     27 CAS          5.4700     0.9480     0.2580 ca         1 EHA       0.085100
     28 CAX          6.4800     1.9150     0.0790 ca         1 EHA      -0.114000
     29 CAT          5.8230    -0.4100     0.4910 ca         1 EHA      -0.199000
     30 CAU          7.1810    -0.7960     0.5430 ca         1 EHA      -0.054000
     31 CAV          8.1630     0.1930     0.3610 ca         1 EHA      -0.057200
     32 CAW          7.8150     1.4970     0.1370 ca         1 EHA      -0.066800
     33 CBA          9.0260     2.2460    -0.0080 cc         1 EHA      -0.297200
     34 CAZ         10.0800     1.3510     0.1380 cd         1 EHA      -0.128100
     35 N            9.5470     0.0630     0.3680 na         1 EHA      -0.017700
     36 CA          10.2730    -1.1940     0.6120 c3         1 EHA      -0.094400
     37 C           10.4150    -2.0580    -0.6510 c          1 EHA       0.709000
     38 OXT          9.6610    -3.0100    -0.7890 o          1 EHA      -0.709500
     39 O           11.2960    -1.7710    -1.4500 o          1 EHA      -0.709500
     40 HAN        -10.3960    -1.8850     1.3700 ha         1 EHA       0.125000
     41 HAO        -10.9330    -4.1890     0.6260 ha         1 EHA       0.115000
     42 HAP         -9.6250    -5.2550    -1.2090 ha         1 EHA       0.112000
     43 HAQ         -7.7810    -3.9940    -2.3130 ha         1 EHA       0.115000
     44 HAR         -7.2380    -1.6880    -1.5970 ha         1 EHA       0.125000
     45 HAG         -6.1060    -1.6240     0.7540 ha         1 EHA       0.117000
     46 HAI         -7.6030     2.3500    -0.0440 ha         1 EHA       0.126000
     47 HAJ         -5.3240     3.2030    -0.1550 ha         1 EHA       0.120000
     48 HBK1        -1.6940     3.4880     0.3500 hc         1 EHA       0.049700
     49 HBK2        -3.3700     3.8830     0.4700 hc         1 EHA       0.049700
     50 HBL1        -3.6540     3.3400    -2.0040 hc         1 EHA       0.042700
     51 HBL2        -1.9370     2.9570    -2.0870 hc         1 EHA       0.042700
     52 HBM1        -2.3690     5.2640    -2.9230 hc         1 EHA       0.030367
     53 HBM2        -3.1030     5.7150    -1.3690 hc         1 EHA       0.030367
     54 HBM3        -1.3680     5.3280    -1.4570 hc         1 EHA       0.030367
     55 HAB         -3.7500    -2.0410     0.8560 ha         1 EHA       0.114000
     56 HAA         -1.4320    -1.2660     0.7380 ha         1 EHA       0.123000
     57 HBI1         0.5050    -0.0600     1.3980 h1         1 EHA       0.035700
     58 HBI2         0.4870    -0.3680    -0.3610 h1         1 EHA       0.035700
     59 HBH1         1.7310     1.7680    -0.7390 hc         1 EHA       0.067200
     60 HBH2         1.7510     2.0720     1.0030 hc         1 EHA       0.067200
     61 HBG1         3.0910    -0.0110     1.3590 h1         1 EHA       0.027200
     62 HBG2         3.0710    -0.3170    -0.4000 h1         1 EHA       0.027200
     63 HAX          6.2290     2.9570    -0.1000 ha         1 EHA       0.109000
     64 HAT          5.0640    -1.1730     0.6310 ha         1 EHA       0.095000
     65 HAU          7.4540    -1.8340     0.7180 ha         1 EHA       0.123000
     66 HBA          9.1210     3.3140    -0.1950 ha         1 EHA       0.185000
     67 HAZ         11.1520     1.5270     0.0980 h4         1 EHA       0.201000
     68 HA1         11.2770    -0.9590     0.9850 h1         1 EHA       0.039700
     69 HA2          9.7520    -1.7710     1.3850 h1         1 EHA       0.039700
@<TRIPOS>BOND
     1     1     2 ar  
     2     1     6 ar  
     3     1    40 1   
     4     2     3 ar  
     5     2    41 1   
     6     3     4 ar  
     7     3    42 1   
     8     4     5 ar  
     9     4    43 1   
    10     5     6 ar  
    11     5    44 1   
    12     6     7 1   
    13     7     8 2   
    14     7     9 1   
    15     9    10 ar  
    16     9    11 ar  
    17    10    18 ar  
    18    10    45 1   
    19    11    12 ar  
    20    11    46 1   
    21    12    13 ar  
    22    12    47 1   
    23    13    14 ar  
    24    13    18 ar  
    25    14    15 1   
    26    14    21 ar  
    27    15    16 1   
    28    15    48 1   
    29    15    49 1   
    30    16    17 1   
    31    16    50 1   
    32    16    51 1   
    33    17    52 1   
    34    17    53 1   
    35    17    54 1   
    36    18    19 ar  
    37    19    20 ar  
    38    19    55 1   
    39    20    21 ar  
    40    20    56 1   
    41    21    22 1   
    42    22    23 1   
    43    23    24 1   
    44    23    57 1   
    45    23    58 1   
    46    24    25 1   
    47    24    59 1   
    48    24    60 1   
    49    25    26 1   
    50    25    61 1   
    51    25    62 1   
    52    26    27 1   
    53    27    28 ar  
    54    27    29 ar  
    55    28    32 ar  
    56    28    63 1   
    57    29    30 ar  
    58    29    64 1   
    59    30    31 ar  
    60    30    65 1   
    61    31    32 ar  
    62    31    35 1   
    63    32    33 1   
    64    33    34 2   
    65    33    66 1   
    66    34    35 1   
    67    34    67 1   
    68    35    36 1   
    69    36    37 1   
    70    36    68 1   
    71    36    69 1   
    72    37    38 1   
    73    37    39 1   
@<TRIPOS>SUBSTRUCTURE
     1 EHA         1 TEMP              0 ****  ****    0 ROOT
