@<TRIPOS>MOLECULE
EHA
   69    73     1     0     0
SMALL
bcc


@<TRIPOS>ATOM
      1 CAN         -9.6010    -2.3710     0.6030 ca         1 EHA      -0.086500
      2 CAO         -9.9350    -3.6640     0.2350 ca         1 EHA      -0.141500
      3 CAP         -9.2860    -4.2740    -0.8330 ca         1 EHA      -0.109000
      4 CAQ         -8.2980    -3.5890    -1.5270 ca         1 EHA      -0.141500
      5 CAR         -7.9450    -2.3030    -1.1440 ca         1 EHA      -0.086500
      6 CAL         -8.5920    -1.6850    -0.0740 ca         1 EHA      -0.165600
      7 CAK         -8.2940    -0.2790     0.3150 c          1 EHA       0.597300
      8 OAM         -9.1910     0.4510     0.6910 o          1 EHA      -0.526100
      9 CAH         -6.9000     0.2160     0.2430 ca         1 EHA      -0.185600
     10 CAG         -5.8210    -0.6200     0.3860 ca         1 EHA      -0.053000
     11 CAI         -6.6690     1.6090     0.1070 ca         1 EHA      -0.082000
     12 CAJ         -5.4030     2.1130     0.0840 ca         1 EHA      -0.138000
     13 CAD         -4.2640     1.2720     0.2260 ca         1 EHA       0.030000
     14 CAE         -2.9390     1.7720     0.2080 ca         1 EHA      -0.124300
     15 CBK         -2.6470     3.2340     0.0090 c3         1 EHA      -0.019100
     16 CBL         -2.4690     3.6040    -1.4670 c3         1 EHA      -0.073400
     17 CBM         -2.1990     5.0890    -1.6590 c3         1 EHA      -0.089100
     18 CAC         -4.5010    -0.1210     0.3870 ca         1 EHA      -0.092000
     19 CAB         -3.4030    -0.9900     0.5350 ca         1 EHA      -0.077000
     20 CAA         -2.1240    -0.5110     0.5050 ca         1 EHA      -0.199000
     21 CAF         -1.8900     0.8710     0.3260 ca         1 EHA       0.168100
     22 OBJ         -0.6510     1.3860     0.2590 os         1 EHA      -0.323900
     23 CBI          0.4840     0.5450     0.3790 c3         1 EHA       0.142400
     24 CBH          1.7080     1.4170     0.1860 c3         1 EHA      -0.089400
     25 CBG          2.9810     0.6100     0.3490 c3         1 EHA       0.153400
     26 OBF          4.0660     1.4800     0.1030 os         1 EHA      -0.340900
     27 CAS          5.3350     1.0040     0.2010 ca         1 EHA       0.085100
     28 CAX          6.3450     1.9120    -0.0740 ca         1 EHA      -0.132000
     29 CAT          5.6370    -0.3230     0.5580 ca         1 EHA      -0.217000
     30 CAU          6.9510    -0.7500     0.6510 ca         1 EHA      -0.072000
     31 CAV          7.9650     0.1610     0.3870 ca         1 EHA      -0.057200
     32 CAW          7.6760     1.4940     0.0140 ca         1 EHA      -0.066800
     33 CBA          8.9330     2.1380    -0.1920 cc         1 EHA      -0.247200
     34 CAZ          9.8930     1.1990     0.0650 cd         1 EHA      -0.078100
     35 N            9.3250     0.0170     0.4310 na         1 EHA       0.011600
     36 CA          10.0220    -1.2180     0.6700 c3         1 EHA      -0.123700
     37 C           10.0770    -2.1720    -0.5450 c          1 EHA       0.919600
     38 OXT         10.5850    -3.2830    -0.2980 o          1 EHA      -0.814800
     39 O            9.6380    -1.7530    -1.6260 o          1 EHA      -0.814800
     40 HAN        -10.1130    -1.8970     1.4310 ha         1 EHA       0.143000
     41 HAO        -10.7040    -4.1980     0.7780 ha         1 EHA       0.133000
     42 HAP         -9.5530    -5.2820    -1.1240 ha         1 EHA       0.130000
     43 HAQ         -7.8000    -4.0560    -2.3660 ha         1 EHA       0.133000
     44 HAR         -7.1810    -1.7730    -1.6980 ha         1 EHA       0.143000
     45 HAG         -5.9590    -1.6860     0.5230 ha         1 EHA       0.135000
     46 HAI         -7.5110     2.2800     0.0020 ha         1 EHA       0.144000
     47 HAJ         -5.2760     3.1790    -0.0440 ha         1 EHA       0.138000
     48 HBK1        -1.7440     3.5130     0.5540 hc         1 EHA       0.049700
     49 HBK2        -3.4440     3.8440     0.4380 hc         1 EHA       0.049700
     50 HBL1        -3.3640     3.3160    -2.0250 hc         1 EHA       0.042700
     51 HBL2        -1.6460     3.0200    -1.8850 hc         1 EHA       0.042700
     52 HBM1        -2.0570     5.3340    -2.7120 hc         1 EHA       0.030367
     53 HBM2        -3.0290     5.6940    -1.2870 hc         1 EHA       0.030367
     54 HBM3        -1.3000     5.3990    -1.1220 hc         1 EHA       0.030367
     55 HAB         -3.5770    -2.0510     0.6640 ha         1 EHA       0.132000
     56 HAA         -1.3020    -1.2040     0.6130 ha         1 EHA       0.141000
     57 HBI1         0.5010     0.0640     1.3640 h1         1 EHA       0.035700
     58 HBI2         0.4590    -0.2480    -0.3770 h1         1 EHA       0.035700
     59 HBH1         1.6810     1.8640    -0.8100 hc         1 EHA       0.067200
     60 HBH2         1.6970     2.2300     0.9170 hc         1 EHA       0.067200
     61 HBG1         3.0360     0.1920     1.3610 h1         1 EHA       0.027200
     62 HBG2         2.9940    -0.2340    -0.3530 h1         1 EHA       0.027200
     63 HAX          6.0970     2.9290    -0.3540 ha         1 EHA       0.127000
     64 HAT          4.8510    -1.0360     0.7620 ha         1 EHA       0.113000
     65 HAU          7.1650    -1.7760     0.9230 ha         1 EHA       0.141000
     66 HBA          9.1060     3.1630    -0.4810 ha         1 EHA       0.135000
     67 HAZ         10.9680     1.2930     0.0220 h4         1 EHA       0.151000
     68 HA1         11.0420    -0.9780     0.9780 h1         1 EHA       0.039700
     69 HA2          9.5630    -1.7300     1.5200 h1         1 EHA       0.039700
@<TRIPOS>BOND
     1     1     2 ar  
     2     1     6 ar  
     3     1    40 1   
     4     2     3 ar  
     5     2    41 1   
     6     3     4 ar  
     7     3    42 1   
     8     4     5 ar  
     9     4    43 1   
    10     5     6 ar  
    11     5    44 1   
    12     6     7 1   
    13     7     8 2   
    14     7     9 1   
    15     9    10 ar  
    16     9    11 ar  
    17    10    18 ar  
    18    10    45 1   
    19    11    12 ar  
    20    11    46 1   
    21    12    13 ar  
    22    12    47 1   
    23    13    14 ar  
    24    13    18 ar  
    25    14    15 1   
    26    14    21 ar  
    27    15    16 1   
    28    15    48 1   
    29    15    49 1   
    30    16    17 1   
    31    16    50 1   
    32    16    51 1   
    33    17    52 1   
    34    17    53 1   
    35    17    54 1   
    36    18    19 ar  
    37    19    20 ar  
    38    19    55 1   
    39    20    21 ar  
    40    20    56 1   
    41    21    22 1   
    42    22    23 1   
    43    23    24 1   
    44    23    57 1   
    45    23    58 1   
    46    24    25 1   
    47    24    59 1   
    48    24    60 1   
    49    25    26 1   
    50    25    61 1   
    51    25    62 1   
    52    26    27 1   
    53    27    28 ar  
    54    27    29 ar  
    55    28    32 ar  
    56    28    63 1   
    57    29    30 ar  
    58    29    64 1   
    59    30    31 ar  
    60    30    65 1   
    61    31    32 ar  
    62    31    35 1   
    63    32    33 1   
    64    33    34 2   
    65    33    66 1   
    66    34    35 1   
    67    34    67 1   
    68    35    36 1   
    69    36    37 1   
    70    36    68 1   
    71    36    69 1   
    72    37    38 1   
    73    37    39 1   
@<TRIPOS>SUBSTRUCTURE
     1 EHA         1 TEMP              0 ****  ****    0 ROOT
