@<TRIPOS>MOLECULE
EHB
   29    30     1     0     0
SMALL
abcg2


@<TRIPOS>ATOM
      1 N            0.0520    -0.9910     0.2890 na         1 EHB      -0.136700
      2 O            3.3350     1.5060     0.0040 o          1 EHB      -0.584100
      3 S            0.7180     1.4780     0.0210 ss         1 EHB       0.152400
      4 C1          -3.5210    -0.0310     0.1360 ca         1 EHB       0.172100
      5 C2          -2.4230    -0.8820     0.2290 ca         1 EHB      -0.176000
      6 C3          -1.1550    -0.3220     0.1930 ca         1 EHB       0.051800
      7 C4          -0.9800     1.0530     0.0540 ca         1 EHB      -0.272000
      8 C5          -2.0740     1.8920    -0.0400 ca         1 EHB       0.000000
      9 C6          -3.3490     1.3490     0.0020 ca         1 EHB      -0.229000
     10 C7           1.1550    -0.2040     0.1900 cc         1 EHB       0.169500
     11 C8           2.4550    -0.6420     0.2150 cf         1 EHB      -0.452200
     12 C9           3.5300     0.2900     0.1030 c          1 EHB       0.581300
     13 C10          4.9310    -0.2660     0.0690 c3         1 EHB      -0.180100
     14 C11          0.1440    -2.4400     0.4060 c3         1 EHB       0.077600
     15 C12          0.3000    -3.1250    -0.9400 c3         1 EHB      -0.116100
     16 O13         -4.7410    -0.5990     0.1810 oh         1 EHB      -0.532100
     17 H2          -2.5780    -1.9480     0.3240 ha         1 EHB       0.136000
     18 H5          -1.9450     2.9620    -0.1450 ha         1 EHB       0.126000
     19 H6          -4.2110     2.0010    -0.0720 ha         1 EHB       0.118000
     20 H8           2.6720    -1.6970     0.2990 ha         1 EHB       0.192000
     21 H10          5.6350     0.4290     0.5250 hc         1 EHB       0.054033
     22 H10A         5.0070    -1.2320     0.5660 hc         1 EHB       0.054033
     23 H10B         5.2360    -0.4090    -0.9710 hc         1 EHB       0.054033
     24 H11          0.9760    -2.6770     1.0670 h1         1 EHB       0.060700
     25 H11A        -0.7500    -2.7920     0.9180 h1         1 EHB       0.060700
     26 H12          0.3840    -4.2020    -0.7940 hc         1 EHB       0.049033
     27 H12A        -0.5590    -2.9390    -1.5830 hc         1 EHB       0.049033
     28 H12B         1.1970    -2.7860    -1.4580 hc         1 EHB       0.049033
     29 HO13        -5.4280     0.0730     0.1150 ho         1 EHB       0.469000
@<TRIPOS>BOND
     1     1     6 1   
     2     1    10 1   
     3     1    14 1   
     4     2    12 2   
     5     3     7 1   
     6     3    10 1   
     7     4     5 ar  
     8     4     9 ar  
     9     4    16 1   
    10     5     6 ar  
    11     5    17 1   
    12     6     7 ar  
    13     7     8 ar  
    14     8     9 ar  
    15     8    18 1   
    16     9    19 1   
    17    10    11 2   
    18    11    12 1   
    19    11    20 1   
    20    12    13 1   
    21    13    21 1   
    22    13    22 1   
    23    13    23 1   
    24    14    15 1   
    25    14    24 1   
    26    14    25 1   
    27    15    26 1   
    28    15    27 1   
    29    15    28 1   
    30    16    29 1   
@<TRIPOS>SUBSTRUCTURE
     1 EHB         1 TEMP              0 ****  ****    0 ROOT
