@<TRIPOS>MOLECULE
EHB
   29    30     1     0     0
SMALL
No Charge or Current Charge


@<TRIPOS>ATOM
      1 N            0.1020    -0.9490     0.1850 na         1 EHB      -0.136700
      2 O            3.6230     1.6300     0.3000 o          1 EHB      -0.584100
      3 S            0.6490     1.6420     0.0190 ss         1 EHB       0.152400
      4 C1          -3.5490    -0.0960     0.1150 ca         1 EHB       0.172100
      5 C2          -2.4040    -0.9080     0.1630 ca         1 EHB      -0.176000
      6 C3          -1.1300    -0.3040     0.1460 ca         1 EHB       0.051800
      7 C4          -1.0240     1.0690     0.0660 ca         1 EHB      -0.272000
      8 C5          -2.1540     1.8990     0.0170 ca         1 EHB       0.000000
      9 C6          -3.4280     1.3040     0.0450 ca         1 EHB      -0.229000
     10 C7           1.1890    -0.0660     0.0440 cc         1 EHB       0.169500
     11 C8           2.5050    -0.4650     0.0100 cf         1 EHB      -0.452200
     12 C9           3.6920     0.4170     0.1690 c          1 EHB       0.581300
     13 C10          5.0390    -0.2980     0.1610 c3         1 EHB      -0.180100
     14 C11          0.1830    -2.4130     0.3890 c3         1 EHB       0.077600
     15 C12          0.1630    -3.2040    -0.9320 c3         1 EHB      -0.116100
     16 O13         -4.7820    -0.6710     0.1330 oh         1 EHB      -0.532100
     17 H2          -2.5210    -1.9860     0.2070 ha         1 EHB       0.136000
     18 H5          -2.0490     2.9810    -0.0450 ha         1 EHB       0.126000
     19 H6          -4.3130     1.9340     0.0060 ha         1 EHB       0.118000
     20 H8           2.7010    -1.5330    -0.0270 ha         1 EHB       0.192000
     21 H10          5.8860     0.3880     0.2730 hc         1 EHB       0.054033
     22 H10A         5.0370    -1.0680     0.9400 hc         1 EHB       0.054033
     23 H10B         5.1190    -0.8950    -0.7550 hc         1 EHB       0.054033
     24 H11          1.1020    -2.6490     0.9400 h1         1 EHB       0.060700
     25 H11A        -0.6450    -2.7420     1.0280 h1         1 EHB       0.060700
     26 H12          0.2290    -4.2800    -0.7330 hc         1 EHB       0.049033
     27 H12A        -0.7650    -3.0130    -1.4850 hc         1 EHB       0.049033
     28 H12B         1.0100    -2.9180    -1.5680 hc         1 EHB       0.049033
     29 HO13        -5.4530     0.0430     0.0920 ho         1 EHB       0.469000
@<TRIPOS>BOND
     1     1     6 1   
     2     1    10 1   
     3     1    14 1   
     4     2    12 2   
     5     3     7 1   
     6     3    10 1   
     7     4     5 ar  
     8     4     9 ar  
     9     4    16 1   
    10     5     6 ar  
    11     5    17 1   
    12     6     7 ar  
    13     7     8 ar  
    14     8     9 ar  
    15     8    18 1   
    16     9    19 1   
    17    10    11 2   
    18    11    12 1   
    19    11    20 1   
    20    12    13 1   
    21    13    21 1   
    22    13    22 1   
    23    13    23 1   
    24    14    15 1   
    25    14    24 1   
    26    14    25 1   
    27    15    26 1   
    28    15    27 1   
    29    15    28 1   
    30    16    29 1   
@<TRIPOS>SUBSTRUCTURE
     1 EHB         1 TEMP              0 ****  ****    0 ROOT
