@<TRIPOS>MOLECULE
EHC
   41    44     1     0     0
SMALL
bcc


@<TRIPOS>ATOM
      1 C4           7.7770    -8.9680   -16.9380 ca         1 EHC      -0.115000
      2 C14          3.1620    -5.9810   -19.9660 cp         1 EHC      -0.059000
      3 C5           7.0280    -8.3690   -17.9340 ca         1 EHC      -0.229000
      4 C6           6.3390    -7.1690   -17.6990 ca         1 EHC       0.197600
      5 C11          4.3390    -6.5900   -22.0960 ca         1 EHC       0.078400
      6 C7           5.5510    -6.7350   -20.0230 ca         1 EHC       0.241600
      7 C8           6.6790    -7.1300   -20.7530 ca         1 EHC      -0.211000
      8 C9           6.6160    -7.2670   -22.1280 ca         1 EHC      -0.090000
      9 C10          5.4450    -7.0070   -22.8210 ca         1 EHC      -0.203000
     10 C12          4.3550    -6.4410   -20.7140 cp         1 EHC      -0.102000
     11 N1           5.5600    -6.5610   -18.6570 nu         1 EHC      -0.667000
     12 C3           7.8610    -8.3960   -15.6750 ca         1 EHC      -0.203000
     13 C1           6.3930    -6.5940   -16.4040 ca         1 EHC      -0.198600
     14 C15          2.4160    -6.8850   -19.2030 ca         1 EHC      -0.040000
     15 C16          1.3190    -6.4340   -18.5000 ca         1 EHC      -0.171300
     16 C17          0.9630    -5.0920   -18.5500 ca         1 EHC       0.132100
     17 C18          1.6800    -4.1730   -19.2940 ca         1 EHC      -0.150000
     18 C19          2.7820    -4.6420   -20.0030 ca         1 EHC      -0.059000
     19 C2           7.1610    -7.2260   -15.4300 ca         1 EHC      -0.073000
     20 C20          0.3040    -7.1500   -17.6580 c5         1 EHC      -0.048100
     21 C21         -0.4450    -5.9680   -17.0240 c5         1 EHC       0.126400
     22 O1           5.8560    -4.8490   -14.8990 o          1 EHC      -0.812300
     23 O2           4.7850    -4.8940   -16.8440 o          1 EHC      -0.812300
     24 O3          -0.1300    -4.8060   -17.8150 os         1 EHC      -0.318900
     25 H1           8.2920    -9.8960   -17.1540 ha         1 EHC       0.101000
     26 H2           6.9560    -8.8580   -18.8950 ha         1 EHC       0.116000
     27 H3           7.6190    -7.3010   -20.2490 ha         1 EHC       0.144000
     28 H4           7.5010    -7.5710   -22.6720 ha         1 EHC       0.117000
     29 H5           5.3930    -7.1180   -23.8950 ha         1 EHC       0.131000
     30 H6           4.9730    -5.8260   -18.2320 hn         1 EHC       0.524800
     31 H7           8.4500    -8.8600   -14.8950 ha         1 EHC       0.108000
     32 H8           2.7020    -7.9290   -19.1690 ha         1 EHC       0.133000
     33 H9           1.4010    -3.1280   -19.3260 ha         1 EHC       0.138000
     34 H10          3.3650    -3.9420   -20.5880 ha         1 EHC       0.132000
     35 H11          7.2020    -6.7760   -14.4470 ha         1 EHC       0.146000
     36 H12         -0.3530    -7.7660   -18.2770 hc         1 EHC       0.053700
     37 H13          0.7450    -7.8000   -16.9030 hc         1 EHC       0.053700
     38 H14         -0.1080    -5.7900   -16.0000 h1         1 EHC       0.049700
     39 H15         -1.5270    -6.0930   -17.0170 h1         1 EHC       0.049700
     40 C13          5.6220    -5.3390   -16.0140 c          1 EHC       0.930200
     41 CL1          2.8670    -6.2810   -22.9640 cl         1 EHC      -0.143400
@<TRIPOS>BOND
     1     1     3 ar  
     2     1    12 ar  
     3     1    25 1   
     4     2    10 1   
     5     2    14 ar  
     6     2    18 ar  
     7     3     4 ar  
     8     3    26 1   
     9     4    11 1   
    10     4    13 ar  
    11     5     9 ar  
    12     5    10 ar  
    13     5    41 1   
    14     6     7 ar  
    15     6    10 ar  
    16     6    11 1   
    17     7     8 ar  
    18     7    27 1   
    19     8     9 ar  
    20     8    28 1   
    21     9    29 1   
    22    11    30 1   
    23    12    19 ar  
    24    12    31 1   
    25    13    19 ar  
    26    13    40 1   
    27    14    15 ar  
    28    14    32 1   
    29    15    16 ar  
    30    15    20 1   
    31    16    17 ar  
    32    16    24 1   
    33    17    18 ar  
    34    17    33 1   
    35    18    34 1   
    36    19    35 1   
    37    20    21 1   
    38    20    36 1   
    39    20    37 1   
    40    21    24 1   
    41    21    38 1   
    42    21    39 1   
    43    22    40 1   
    44    23    40 1   
@<TRIPOS>SUBSTRUCTURE
     1 EHC         1 TEMP              0 ****  ****    0 ROOT
