@<TRIPOS>MOLECULE
EHC
   41    44     1     0     0
SMALL
No Charge or Current Charge


@<TRIPOS>ATOM
      1 C4           7.6840    -9.1210   -16.8430 ca         1 EHC      -0.097000
      2 C14          3.1360    -5.9280   -20.0160 cp         1 EHC      -0.059000
      3 C5           6.9370    -8.5060   -17.8590 ca         1 EHC      -0.211000
      4 C6           6.3150    -7.2610   -17.6430 ca         1 EHC       0.336000
      5 C11          4.3850    -6.4140   -22.1700 ca         1 EHC       0.170000
      6 C7           5.5420    -6.7440   -20.0500 ca         1 EHC       0.380000
      7 C8           6.6980    -7.1240   -20.7570 ca         1 EHC      -0.193000
      8 C9           6.6980    -7.1660   -22.1580 ca         1 EHC      -0.072000
      9 C10          5.5380    -6.8170   -22.8620 ca         1 EHC      -0.185000
     10 C12          4.3660    -6.3600   -20.7510 cp         1 EHC      -0.102000
     11 N1           5.5700    -6.6700   -18.6560 nu         1 EHC      -0.999000
     12 C3           7.8020    -8.4960   -15.5960 ca         1 EHC      -0.185000
     13 C1           6.4070    -6.6400   -16.3760 ca         1 EHC      -0.198600
     14 C15          2.4650    -6.8220   -19.1400 ca         1 EHC      -0.022000
     15 C16          1.3180    -6.3900   -18.4580 ca         1 EHC      -0.171300
     16 C17          0.8340    -5.1160   -18.6260 ca         1 EHC       0.132100
     17 C18          1.4550    -4.2040   -19.4870 ca         1 EHC      -0.132000
     18 C19          2.6130    -4.6140   -20.1780 ca         1 EHC      -0.041000
     19 C2           7.1660    -7.2670   -15.3600 ca         1 EHC      -0.055000
     20 C20          0.4550    -7.1680   -17.5180 c5         1 EHC      -0.048100
     21 C21         -0.4210    -5.9780   -16.9750 c5         1 EHC       0.149600
     22 O1           6.2250    -4.5950   -15.2350 o          1 EHC      -0.707000
     23 O2           4.6920    -5.0430   -16.6740 o          1 EHC      -0.707000
     24 O3          -0.2980    -4.8500   -17.9080 os         1 EHC      -0.342100
     25 H1           8.1620   -10.0820   -17.0220 ha         1 EHC       0.083000
     26 H2           6.8310    -9.0150   -18.8120 ha         1 EHC       0.098000
     27 H3           7.6100    -7.3660   -20.2230 ha         1 EHC       0.126000
     28 H4           7.5960    -7.4640   -22.6970 ha         1 EHC       0.099000
     29 H5           5.5320    -6.8530   -23.9480 ha         1 EHC       0.113000
     30 H6           4.9070    -5.9850   -18.2650 hn         1 EHC       0.580000
     31 H7           8.3790    -8.9690   -14.8040 ha         1 EHC       0.090000
     32 H8           2.8360    -7.8350   -19.0010 ha         1 EHC       0.115000
     33 H9           1.0550    -3.2020   -19.6140 ha         1 EHC       0.120000
     34 H10          3.1130    -3.9150   -20.8430 ha         1 EHC       0.114000
     35 H11          7.2580    -6.8040   -14.3790 ha         1 EHC       0.128000
     36 H12         -0.1510    -7.9190   -18.0370 hc         1 EHC       0.053700
     37 H13          1.0180    -7.6690   -16.7220 hc         1 EHC       0.053700
     38 H14         -0.0440    -5.6470   -15.9980 h1         1 EHC       0.049700
     39 H15         -1.4780    -6.2500   -16.8560 h1         1 EHC       0.049700
     40 C13          5.7270    -5.3220   -16.0820 c          1 EHC       0.719600
     41 Cl1          2.9600    -6.0090   -23.1260 cl         1 EHC      -0.235000
@<TRIPOS>BOND
     1     1     3 ar  
     2     1    12 ar  
     3     1    25 1   
     4     2    10 1   
     5     2    14 ar  
     6     2    18 ar  
     7     3     4 ar  
     8     3    26 1   
     9     4    11 1   
    10     4    13 ar  
    11     5     9 ar  
    12     5    10 ar  
    13     5    41 1   
    14     6     7 ar  
    15     6    10 ar  
    16     6    11 1   
    17     7     8 ar  
    18     7    27 1   
    19     8     9 ar  
    20     8    28 1   
    21     9    29 1   
    22    11    30 1   
    23    12    19 ar  
    24    12    31 1   
    25    13    19 ar  
    26    13    40 1   
    27    14    15 ar  
    28    14    32 1   
    29    15    16 ar  
    30    15    20 1   
    31    16    17 ar  
    32    16    24 1   
    33    17    18 ar  
    34    17    33 1   
    35    18    34 1   
    36    19    35 1   
    37    20    21 1   
    38    20    36 1   
    39    20    37 1   
    40    21    24 1   
    41    21    38 1   
    42    21    39 1   
    43    22    40 1   
    44    23    40 1   
@<TRIPOS>SUBSTRUCTURE
     1 EHC         1 TEMP              0 ****  ****    0 ROOT
