@<TRIPOS>MOLECULE
EHD
   42    46     1     0     0
SMALL
abcg2


@<TRIPOS>ATOM
      1 O18          1.3340    -3.2590     0.3510 o          1 EHD      -0.562000
      2 C14          1.1510    -2.0570     0.1860 c          1 EHD       0.575200
      3 C15          2.1880    -1.0640     0.0550 cc         1 EHD      -0.270400
      4 C19          3.6070    -1.5150     0.1130 c6         1 EHD       0.233800
      5 O22          4.4660    -0.7110    -0.7010 os         1 EHD      -0.427100
      6 C20          4.2290     0.5730    -0.9020 c          1 EHD       0.644100
      7 O23          4.9440     1.2030    -1.6360 o          1 EHD      -0.499000
      8 C16          1.9030     0.2600    -0.1080 cd         1 EHD       0.031800
      9 C17          0.5690     0.7180    -0.1770 cd         1 EHD      -0.207000
     10 C21          3.0620     1.2230    -0.1540 c6         1 EHD       0.122200
     11 O24          2.6530     2.3700    -0.8290 oh         1 EHD      -0.636000
     12 C25          3.4980     1.5350     1.2980 c3         1 EHD      -0.101400
     13 C31          4.6200     2.5570     1.4160 c3         1 EHD      -0.098100
     14 N12         -0.1210    -1.5400     0.1100 n          1 EHD      -0.270000
     15 C11         -1.3130    -2.3810     0.2160 c5         1 EHD       0.142300
     16 C8          -2.4110    -1.3770     0.0930 ca         1 EHD      -0.158300
     17 C7          -3.7650    -1.5060     0.1180 ca         1 EHD      -0.034000
     18 C6          -4.5400    -0.3310    -0.0250 ca         1 EHD      -0.073000
     19 C5          -3.8710     0.9170    -0.1900 ca         1 EHD       0.268000
     20 N10         -2.5220     1.0200    -0.2120 nb         1 EHD      -0.614000
     21 C9          -1.8580    -0.0900    -0.0740 ca         1 EHD       0.389800
     22 C13         -0.4060    -0.2190    -0.0600 cc         1 EHD      -0.011200
     23 C1          -5.9520    -0.3560    -0.0070 ca         1 EHD      -0.094000
     24 C2          -6.6690     0.8000    -0.1470 ca         1 EHD      -0.096000
     25 C3          -6.0060     2.0350    -0.3130 ca         1 EHD      -0.098000
     26 C4          -4.6400     2.0940    -0.3330 ca         1 EHD      -0.078000
     27 H191         3.7120    -2.5310    -0.2630 h1         1 EHD       0.080700
     28 H192         3.9880    -1.5070     1.1390 h1         1 EHD       0.080700
     29 H17          0.3110     1.7570    -0.3070 ha         1 EHD       0.238000
     30 H24          3.4160     2.9380    -0.9890 ho         1 EHD       0.474000
     31 H251         3.7890     0.6130     1.8070 hc         1 EHD       0.058200
     32 H252         2.6110     1.9020     1.8200 hc         1 EHD       0.058200
     33 H311         4.8310     2.7420     2.4680 hc         1 EHD       0.043367
     34 H312         5.5480     2.2180     0.9560 hc         1 EHD       0.043367
     35 H313         4.3500     3.5170     0.9750 hc         1 EHD       0.043367
     36 H111        -1.3260    -3.1250    -0.5830 h1         1 EHD       0.086700
     37 H112        -1.3230    -2.9090     1.1710 h1         1 EHD       0.086700
     38 H7          -4.2520    -2.4660     0.2470 ha         1 EHD       0.129000
     39 H1          -6.4590    -1.3050     0.1210 ha         1 EHD       0.119000
     40 H2          -7.7500     0.7720    -0.1320 ha         1 EHD       0.120000
     41 H3          -6.5880     2.9400    -0.4250 ha         1 EHD       0.122000
     42 H4          -4.1220     3.0360    -0.4610 ha         1 EHD       0.136000
@<TRIPOS>BOND
     1     1     2 2   
     2     2     3 1   
     3     2    14 1   
     4     3     4 1   
     5     3     8 2   
     6     4     5 1   
     7     4    27 1   
     8     4    28 1   
     9     5     6 1   
    10     6     7 2   
    11     6    10 1   
    12     8     9 1   
    13     8    10 1   
    14     9    22 2   
    15     9    29 1   
    16    10    11 1   
    17    10    12 1   
    18    11    30 1   
    19    12    13 1   
    20    12    31 1   
    21    12    32 1   
    22    13    33 1   
    23    13    34 1   
    24    13    35 1   
    25    14    15 1   
    26    14    22 1   
    27    15    16 1   
    28    15    36 1   
    29    15    37 1   
    30    16    17 ar  
    31    16    21 ar  
    32    17    18 ar  
    33    17    38 1   
    34    18    19 ar  
    35    18    23 ar  
    36    19    20 ar  
    37    19    26 ar  
    38    20    21 ar  
    39    21    22 1   
    40    23    24 ar  
    41    23    39 1   
    42    24    25 ar  
    43    24    40 1   
    44    25    26 ar  
    45    25    41 1   
    46    26    42 1   
@<TRIPOS>SUBSTRUCTURE
     1 EHD         1 TEMP              0 ****  ****    0 ROOT
