@<TRIPOS>MOLECULE
EHD
   42    46     1     0     0
SMALL
No Charge or Current Charge


@<TRIPOS>ATOM
      1 O18          1.3890    -3.3640     0.2690 o          1 EHD      -0.562000
      2 C14          1.1610    -2.1680     0.1420 c          1 EHD       0.575200
      3 C15          2.2080    -1.1160     0.0410 cc         1 EHD      -0.270400
      4 C19          3.6390    -1.5730     0.1220 c6         1 EHD       0.233800
      5 O22          4.4670    -0.7950    -0.7600 os         1 EHD      -0.427100
      6 C20          4.3450     0.5720    -0.8470 c          1 EHD       0.644100
      7 O23          5.0630     1.2130    -1.6070 o          1 EHD      -0.499000
      8 C16          1.9330     0.2400    -0.0870 cd         1 EHD       0.031800
      9 C17          0.5500     0.6640    -0.1250 cd         1 EHD      -0.207000
     10 C21          3.0850     1.2380    -0.1540 c6         1 EHD       0.122200
     11 O24          2.6820     2.4270    -0.8850 oh         1 EHD      -0.636000
     12 C25          3.4550     1.6780     1.3020 c3         1 EHD      -0.101400
     13 C31          4.6350     2.6690     1.4420 c3         1 EHD      -0.098100
     14 N12         -0.1380    -1.6610     0.0830 n          1 EHD      -0.270000
     15 C11         -1.3650    -2.5080     0.1620 c5         1 EHD       0.142300
     16 C8          -2.4100    -1.3890     0.0600 ca         1 EHD      -0.158300
     17 C7          -3.8050    -1.4990     0.0730 ca         1 EHD      -0.034000
     18 C6          -4.5450    -0.3010    -0.0350 ca         1 EHD      -0.073000
     19 C5          -3.8620     0.9470    -0.1500 ca         1 EHD       0.268000
     20 N10         -2.5070     1.0290    -0.1600 nb         1 EHD      -0.614000
     21 C9          -1.8310    -0.1340    -0.0570 ca         1 EHD       0.389800
     22 C13         -0.4020    -0.3210    -0.0410 cc         1 EHD      -0.011200
     23 C1          -5.9530    -0.3460    -0.0270 ca         1 EHD      -0.094000
     24 C2          -6.6960     0.8410    -0.1340 ca         1 EHD      -0.096000
     25 C3          -6.0340     2.0740    -0.2480 ca         1 EHD      -0.098000
     26 C4          -4.6290     2.1220    -0.2550 ca         1 EHD      -0.078000
     27 H191         3.7520    -2.6330    -0.1500 h1         1 EHD       0.080700
     28 H192         4.0160    -1.4630     1.1500 h1         1 EHD       0.080700
     29 H17          0.2730     1.7110    -0.2140 ha         1 EHD       0.238000
     30 H24          3.5010     2.8060    -1.2780 ho         1 EHD       0.474000
     31 H251         3.6870     0.7930     1.9080 hc         1 EHD       0.058200
     32 H252         2.5740     2.1320     1.7740 hc         1 EHD       0.058200
     33 H311         4.7910     2.9230     2.4970 hc         1 EHD       0.043367
     34 H312         5.5670     2.2340     1.0610 hc         1 EHD       0.043367
     35 H313         4.4370     3.6000     0.8990 hc         1 EHD       0.043367
     36 H111        -1.4320    -3.2160    -0.6740 h1         1 EHD       0.086700
     37 H112        -1.4300    -3.0510     1.1140 h1         1 EHD       0.086700
     38 H7          -4.2940    -2.4670     0.1630 ha         1 EHD       0.129000
     39 H1          -6.4720    -1.2980     0.0610 ha         1 EHD       0.119000
     40 H2          -7.7830     0.8050    -0.1280 ha         1 EHD       0.120000
     41 H3          -6.6100     2.9940    -0.3310 ha         1 EHD       0.122000
     42 H4          -4.1250     3.0810    -0.3440 ha         1 EHD       0.136000
@<TRIPOS>BOND
     1     1     2 2   
     2     2     3 1   
     3     2    14 1   
     4     3     4 1   
     5     3     8 2   
     6     4     5 1   
     7     4    27 1   
     8     4    28 1   
     9     5     6 1   
    10     6     7 2   
    11     6    10 1   
    12     8     9 1   
    13     8    10 1   
    14     9    22 2   
    15     9    29 1   
    16    10    11 1   
    17    10    12 1   
    18    11    30 1   
    19    12    13 1   
    20    12    31 1   
    21    12    32 1   
    22    13    33 1   
    23    13    34 1   
    24    13    35 1   
    25    14    15 1   
    26    14    22 1   
    27    15    16 1   
    28    15    36 1   
    29    15    37 1   
    30    16    17 ar  
    31    16    21 ar  
    32    17    18 ar  
    33    17    38 1   
    34    18    19 ar  
    35    18    23 ar  
    36    19    20 ar  
    37    19    26 ar  
    38    20    21 ar  
    39    21    22 1   
    40    23    24 ar  
    41    23    39 1   
    42    24    25 ar  
    43    24    40 1   
    44    25    26 ar  
    45    25    41 1   
    46    26    42 1   
@<TRIPOS>SUBSTRUCTURE
     1 EHD         1 TEMP              0 ****  ****    0 ROOT
