@<TRIPOS>MOLECULE
EHE
   39    41     1     0     0
SMALL
No Charge or Current Charge


@<TRIPOS>ATOM
      1 N1          -0.0100     0.0580    -0.0920 nc         1 EHE      -0.425300
      2 C4          -1.2300     0.5990    -0.0800 cd         1 EHE       0.391200
      3 C5          -1.4260     2.0470    -0.0820 cd         1 EHE      -0.105800
      4 C6          -0.2840     2.8330    -0.0540 cc         1 EHE      -0.291200
      5 C7           2.4230     0.1550    -0.0640 c6         1 EHE       0.120700
      6 C13         -2.7970     2.6850    -0.1320 c3         1 EHE      -0.057900
      7 C15          4.1260    -1.0860     1.3730 c6         1 EHE       0.150300
      8 C17         -3.3790    -0.2870     0.8710 ca         1 EHE      -0.087000
      9 C20         -4.4580    -2.2490    -0.0860 ca         1 EHE      -0.100000
     10 N2           1.1130     0.8750    -0.0850 n          1 EHE      -0.116800
     11 C18         -4.4290    -1.2220     0.8710 ca         1 EHE      -0.114000
     12 C11          2.7540    -0.3720     1.3570 c6         1 EHE      -0.125900
     13 C16         -2.3790    -1.4120    -1.0390 ca         1 EHE      -0.087000
     14 C9          -2.3540    -0.3600    -0.0970 ca         1 EHE      -0.110900
     15 N10          4.1690    -2.1750     0.3670 n7         1 EHE      -0.846400
     16 C12          2.5100    -1.0160    -1.0860 c6         1 EHE      -0.125900
     17 C19         -3.4300    -2.3460    -1.0380 ca         1 EHE      -0.114000
     18 C14          3.8930    -1.7010    -1.0110 c6         1 EHE       0.150300
     19 C3           1.0800     2.2890    -0.0430 c          1 EHE       0.536200
     20 H1          -0.3360     3.9160    -0.0430 ha         1 EHE       0.212000
     21 H2           3.2120     0.8680    -0.3410 h1         1 EHE       0.091700
     22 H3          -3.2240     2.7830     0.8730 hc         1 EHE       0.054700
     23 H4          -2.7520     3.6900    -0.5680 hc         1 EHE       0.054700
     24 H5          -3.4940     2.1010    -0.7440 hc         1 EHE       0.054700
     25 H6           4.9220    -0.3560     1.1600 h1         1 EHE       0.055700
     26 H7           4.3170    -1.4980     2.3750 h1         1 EHE       0.055700
     27 H9          -5.2700    -2.9730    -0.0850 ha         1 EHE       0.115000
     28 H10         -5.2160    -1.1540     1.6180 ha         1 EHE       0.115500
     29 H11          2.7660     0.4610     2.0720 hc         1 EHE       0.057700
     30 H12          1.9720    -1.0650     1.6960 hc         1 EHE       0.057700
     31 H13         -1.5870    -1.5010    -1.7800 ha         1 EHE       0.117500
     32 H14          3.4560    -2.8730     0.6160 hn         1 EHE       0.406000
     33 H16          1.7290    -1.7650    -0.8910 hc         1 EHE       0.057700
     34 H17          2.3380    -0.6390    -2.1030 hc         1 EHE       0.057700
     35 H18         -3.4450    -3.1470    -1.7750 ha         1 EHE       0.115500
     36 H19          4.6740    -0.9910    -1.3220 h1         1 EHE       0.055700
     37 H20          3.9220    -2.5510    -1.7090 h1         1 EHE       0.055700
     38 O8           2.0770     2.9990    -0.0070 o          1 EHE      -0.547000
     39 H8          -3.3580     0.4880     1.6340 ha         1 EHE       0.117500
@<TRIPOS>BOND
     1     1     2 2   
     2     1    10 1   
     3     2     3 1   
     4     2    14 1   
     5     3     4 2   
     6     3     6 1   
     7     4    19 1   
     8     4    20 1   
     9     5    10 1   
    10     5    12 1   
    11     5    16 1   
    12     5    21 1   
    13     6    22 1   
    14     6    23 1   
    15     6    24 1   
    16     7    12 1   
    17     7    15 1   
    18     7    25 1   
    19     7    26 1   
    20     8    11 ar  
    21     8    14 ar  
    22     8    39 1   
    23     9    11 ar  
    24     9    17 ar  
    25     9    27 1   
    26    10    19 1   
    27    11    28 1   
    28    12    29 1   
    29    12    30 1   
    30    13    14 ar  
    31    13    17 ar  
    32    13    31 1   
    33    15    18 1   
    34    15    32 1   
    35    16    18 1   
    36    16    33 1   
    37    16    34 1   
    38    17    35 1   
    39    18    36 1   
    40    18    37 1   
    41    19    38 2   
@<TRIPOS>SUBSTRUCTURE
     1 EHE         1 TEMP              0 ****  ****    0 ROOT
