@<TRIPOS>MOLECULE
EHE
   39    41     1     0     0
SMALL
abcg2


@<TRIPOS>ATOM
      1 N1           0.0320     0.1370     0.0270 nc         1 EHE      -0.425300
      2 C4          -1.1600     0.6400    -0.0190 cd         1 EHE       0.391200
      3 C5          -1.3720     2.0560    -0.1510 cd         1 EHE      -0.105800
      4 C6          -0.2640     2.8340    -0.1940 cc         1 EHE      -0.291200
      5 C7           2.3750     0.1870     0.0290 c6         1 EHE       0.120700
      6 C13         -2.7380     2.6500    -0.2820 c3         1 EHE      -0.057900
      7 C15          3.8700    -1.3110     1.3500 c6         1 EHE       0.150300
      8 C17         -3.3290    -0.2200     0.9020 ca         1 EHE      -0.087000
      9 C20         -4.2880    -2.2690     0.0820 ca         1 EHE      -0.100000
     10 N2           1.0990     0.9110    -0.0220 n          1 EHE      -0.116800
     11 C18         -4.3350    -1.1760     0.9370 ca         1 EHE      -0.114000
     12 C11          2.5430    -0.5510     1.3520 c6         1 EHE      -0.125900
     13 C16         -2.2190    -1.4520    -0.8350 ca         1 EHE      -0.087000
     14 C9          -2.2640    -0.3460     0.0130 ca         1 EHE      -0.110900
     15 N10          4.0320    -2.2120     0.2220 n7         1 EHE      -0.846400
     16 C12          2.5120    -0.7730    -1.1470 c6         1 EHE      -0.125900
     17 C19         -3.2260    -2.4060    -0.8020 ca         1 EHE      -0.114000
     18 C14          3.8400    -1.5250    -1.0440 c6         1 EHE       0.150300
     19 C3           1.0670     2.2900    -0.1150 c          1 EHE       0.536200
     20 H1          -0.3450     3.9070    -0.3090 ha         1 EHE       0.212000
     21 H2           3.1500     0.9500    -0.0470 h1         1 EHE       0.091700
     22 H3          -3.2520     2.6800     0.6790 hc         1 EHE       0.054700
     23 H4          -2.6740     3.6710    -0.6520 hc         1 EHE       0.054700
     24 H5          -3.3610     2.0720    -0.9650 hc         1 EHE       0.054700
     25 H6           4.6980    -0.5940     1.3330 h1         1 EHE       0.055700
     26 H7           3.9710    -1.8800     2.2760 h1         1 EHE       0.055700
     27 H9          -5.0740    -3.0120     0.1070 ha         1 EHE       0.115000
     28 H10         -5.1520    -1.0680     1.6370 ha         1 EHE       0.115500
     29 H11          2.5110     0.1520     2.1880 hc         1 EHE       0.057700
     30 H12          1.7190    -1.2600     1.4850 hc         1 EHE       0.057700
     31 H13         -1.3970    -1.5600    -1.5300 ha         1 EHE       0.117500
     32 H14          3.3530    -2.9620     0.2990 hn         1 EHE       0.406000
     33 H16          1.6840    -1.4880    -1.1380 hc         1 EHE       0.057700
     34 H17          2.4640    -0.2240    -2.0920 hc         1 EHE       0.057700
     35 H18         -3.1820    -3.2550    -1.4710 ha         1 EHE       0.115500
     36 H19          4.6660    -0.8170    -1.1740 h1         1 EHE       0.055700
     37 H20          3.9190    -2.2490    -1.8560 h1         1 EHE       0.055700
     38 O8           2.0920     2.9640    -0.1380 o          1 EHE      -0.547000
     39 H8          -3.3690     0.6150     1.5910 ha         1 EHE       0.117500
@<TRIPOS>BOND
     1     1     2 2   
     2     1    10 1   
     3     2     3 1   
     4     2    14 1   
     5     3     4 2   
     6     3     6 1   
     7     4    19 1   
     8     4    20 1   
     9     5    10 1   
    10     5    12 1   
    11     5    16 1   
    12     5    21 1   
    13     6    22 1   
    14     6    23 1   
    15     6    24 1   
    16     7    12 1   
    17     7    15 1   
    18     7    25 1   
    19     7    26 1   
    20     8    11 ar  
    21     8    14 ar  
    22     8    39 1   
    23     9    11 ar  
    24     9    17 ar  
    25     9    27 1   
    26    10    19 1   
    27    11    28 1   
    28    12    29 1   
    29    12    30 1   
    30    13    14 ar  
    31    13    17 ar  
    32    13    31 1   
    33    15    18 1   
    34    15    32 1   
    35    16    18 1   
    36    16    33 1   
    37    16    34 1   
    38    17    35 1   
    39    18    36 1   
    40    18    37 1   
    41    19    38 2   
@<TRIPOS>SUBSTRUCTURE
     1 EHE         1 TEMP              0 ****  ****    0 ROOT
