@<TRIPOS>MOLECULE
EHF
   44    47     1     0     0
SMALL
No Charge or Current Charge


@<TRIPOS>ATOM
      1 C1          -6.7130    -0.9960     0.2480 ca         1 EHF      -0.116000
      2 C2          -5.9930    -2.2010     0.2110 ca         1 EHF      -0.112000
      3 C3          -4.5900    -2.1810     0.1200 ca         1 EHF      -0.075000
      4 C4          -3.8830    -0.9650     0.0630 ca         1 EHF       0.273000
      5 C5          -4.6270     0.2540     0.1010 ca         1 EHF      -0.085000
      6 C6          -6.0320     0.2300     0.1930 ca         1 EHF      -0.094000
      7 N7          -2.5290    -0.9810    -0.0260 nb         1 EHF      -0.626000
      8 C8          -1.9150     0.2190    -0.0770 ca         1 EHF       0.423800
      9 C9          -2.5540     1.4490    -0.0450 ca         1 EHF      -0.150300
     10 C10         -3.9500     1.4920     0.0460 ca         1 EHF      -0.054000
     11 C11         -0.5010     0.4780    -0.1700 cc         1 EHF      -0.079200
     12 N12         -0.3010     1.8230    -0.1920 n          1 EHF      -0.282000
     13 C13         -1.5650     2.6170    -0.1180 c5         1 EHF       0.146300
     14 C14          0.4940    -0.4580    -0.2200 cd         1 EHF      -0.173000
     15 C15          1.8820    -0.0180    -0.3170 cd         1 EHF       0.011800
     16 C16          2.0990     1.3890    -0.2920 cc         1 EHF      -0.229400
     17 C17          0.9680     2.3880    -0.2370 c          1 EHF       0.563200
     18 O18          1.0960     3.6080    -0.2260 o          1 EHF      -0.599000
     19 C19          3.4460     2.0900    -0.2910 c3         1 EHF       0.231800
     20 C20          2.9550    -1.1430    -0.3640 c3         1 EHF       0.055200
     21 C21          3.4010    -1.4630     1.1240 c          1 EHF       0.740000
     22 O22          3.1360    -2.5520     1.6240 o          1 EHF      -0.686500
     23 O23          3.9460    -0.5630     1.7530 o          1 EHF      -0.686500
     24 O24          2.3640    -2.3020    -1.0250 oh         1 EHF      -0.622000
     25 C25          4.2340    -0.8330    -1.2190 c3         1 EHF      -0.080400
     26 C26          5.1440    -2.0450    -1.5410 c3         1 EHF      -0.076100
     27 O27          4.0930     1.9460     0.9760 oh         1 EHF      -0.716000
     28 H1          -7.7980    -1.0130     0.3190 ha         1 EHF       0.106000
     29 H2          -6.5210    -3.1510     0.2540 ha         1 EHF       0.110000
     30 H3          -4.0410    -3.1180     0.0920 ha         1 EHF       0.135000
     31 H4          -6.5960     1.1590     0.2220 ha         1 EHF       0.108000
     32 H5          -4.4850     2.4390     0.0730 ha         1 EHF       0.118000
     33 H6          -1.7170     3.2340    -1.0130 h1         1 EHF       0.073700
     34 H7           0.2270    -1.5110    -0.1780 ha         1 EHF       0.237000
     35 H9           4.0690     1.7140    -1.1070 h1         1 EHF       0.028200
     36 H10          3.3510     3.1570    -0.5190 h1         1 EHF       0.028200
     37 H12          2.1770    -2.0400    -1.9500 ho         1 EHF       0.403000
     38 H13          3.9400    -0.3550    -2.1620 hc         1 EHF       0.037200
     39 H14          4.8770    -0.1320    -0.6800 hc         1 EHF       0.037200
     40 H15          4.6500    -2.7540    -2.2160 hc         1 EHF       0.027700
     41 H16          6.0620    -1.7050    -2.0340 hc         1 EHF       0.027700
     42 H17          5.4290    -2.5760    -0.6250 hc         1 EHF       0.027700
     43 H18          4.0170     0.9810     1.2370 ho         1 EHF       0.518000
     44 H8          -1.6030     3.2480     0.7800 h1         1 EHF       0.073700
@<TRIPOS>BOND
     1     1     2 ar  
     2     1     6 ar  
     3     1    28 1   
     4     2     3 ar  
     5     2    29 1   
     6     3     4 ar  
     7     3    30 1   
     8     4     5 ar  
     9     4     7 ar  
    10     5     6 ar  
    11     5    10 ar  
    12     6    31 1   
    13     7     8 ar  
    14     8     9 ar  
    15     8    11 1   
    16     9    10 ar  
    17     9    13 1   
    18    10    32 1   
    19    11    12 1   
    20    11    14 2   
    21    12    13 1   
    22    12    17 1   
    23    13    33 1   
    24    13    44 1   
    25    14    15 1   
    26    14    34 1   
    27    15    16 2   
    28    15    20 1   
    29    16    17 1   
    30    16    19 1   
    31    17    18 2   
    32    19    27 1   
    33    19    35 1   
    34    19    36 1   
    35    20    21 1   
    36    20    24 1   
    37    20    25 1   
    38    21    22 1   
    39    21    23 1   
    40    24    37 1   
    41    25    26 1   
    42    25    38 1   
    43    25    39 1   
    44    26    40 1   
    45    26    41 1   
    46    26    42 1   
    47    27    43 1   
@<TRIPOS>SUBSTRUCTURE
     1 EHF         1 TEMP              0 ****  ****    0 ROOT
