@<TRIPOS>MOLECULE
EHF
   44    47     1     0     0
SMALL
bcc


@<TRIPOS>ATOM
      1 C1          -6.6770    -0.9650     0.3060 ca         1 EHF      -0.134000
      2 C2          -5.9550    -2.1730     0.2000 ca         1 EHF      -0.130000
      3 C3          -4.5930    -2.1620     0.0710 ca         1 EHF      -0.158300
      4 C4          -3.8880    -0.9370     0.0430 ca         1 EHF       0.403600
      5 C5          -4.6160     0.2820     0.1500 ca         1 EHF      -0.150300
      6 C6          -6.0210     0.2350     0.2820 ca         1 EHF      -0.112000
      7 N7          -2.5390    -0.9700    -0.0830 nb         1 EHF      -0.626000
      8 C8          -1.9330     0.1810    -0.1010 ca         1 EHF       0.489100
      9 C9          -2.5520     1.4480    -0.0050 ca         1 EHF      -0.215600
     10 C10         -3.9050     1.5050     0.1230 ca         1 EHF      -0.072000
     11 C11         -0.4960     0.3940    -0.2220 cc         1 EHF      -0.079200
     12 N12         -0.2850     1.7360    -0.1980 n          1 EHF      -0.349000
     13 C13         -1.5120     2.5180    -0.0620 c5         1 EHF       0.146300
     14 C14          0.5300    -0.4760    -0.3390 cd         1 EHF      -0.123000
     15 C15          1.8640     0.0210    -0.4330 cd         1 EHF       0.011800
     16 C16          2.0750     1.3860    -0.3950 cc         1 EHF      -0.229400
     17 C17          0.9560     2.3110    -0.2640 c          1 EHF       0.705700
     18 O18          1.0490     3.5380    -0.2140 o          1 EHF      -0.674500
     19 C19          3.4280     2.0600    -0.3800 c3         1 EHF       0.208600
     20 C20          2.9270    -1.0950    -0.4780 c3         1 EHF       0.032000
     21 C21          3.2080    -1.4560     1.0160 c          1 EHF       0.950600
     22 O22          2.8650    -2.5670     1.4190 o          1 EHF      -0.791800
     23 O23          3.7690    -0.5540     1.6860 o          1 EHF      -0.791800
     24 O24          2.3610    -2.2320    -1.0870 oh         1 EHF      -0.559800
     25 C25          4.2550    -0.7800    -1.1880 c3         1 EHF      -0.080400
     26 C26          5.1600    -2.0000    -1.3240 c3         1 EHF      -0.076100
     27 O27          4.0820     1.9460     0.8610 oh         1 EHF      -0.653800
     28 H1          -7.7530    -0.9940     0.4070 ha         1 EHF       0.124000
     29 H2          -6.4870    -3.1150     0.2230 ha         1 EHF       0.128000
     30 H3          -4.0300    -3.0820    -0.0130 ha         1 EHF       0.153000
     31 H4          -6.5720     1.1640     0.3650 ha         1 EHF       0.126000
     32 H5          -4.4380     2.4450     0.2060 ha         1 EHF       0.136000
     33 H6          -1.6360     3.1890    -0.9140 h1         1 EHF       0.073700
     34 H7           0.3200    -1.5330    -0.3440 ha         1 EHF       0.187000
     35 H9           4.0370     1.6870    -1.2060 h1         1 EHF       0.028200
     36 H10          3.2860     3.1220    -0.5770 h1         1 EHF       0.028200
     37 H12          2.2470    -2.0410    -2.0250 ho         1 EHF       0.364000
     38 H13          4.0480    -0.3690    -2.1820 hc         1 EHF       0.037200
     39 H14          4.8130    -0.0200    -0.6490 hc         1 EHF       0.037200
     40 H15          4.7160    -2.7880    -1.9290 hc         1 EHF       0.027700
     41 H16          6.0960    -1.7080    -1.8030 hc         1 EHF       0.027700
     42 H17          5.4150    -2.4270    -0.3530 hc         1 EHF       0.027700
     43 H18          4.0040     1.0080     1.1620 ho         1 EHF       0.479000
     44 H8          -1.4820     3.1280     0.8430 h1         1 EHF       0.073700
@<TRIPOS>BOND
     1     1     2 ar  
     2     1     6 ar  
     3     1    28 1   
     4     2     3 ar  
     5     2    29 1   
     6     3     4 ar  
     7     3    30 1   
     8     4     5 ar  
     9     4     7 ar  
    10     5     6 ar  
    11     5    10 ar  
    12     6    31 1   
    13     7     8 ar  
    14     8     9 ar  
    15     8    11 1   
    16     9    10 ar  
    17     9    13 1   
    18    10    32 1   
    19    11    12 1   
    20    11    14 2   
    21    12    13 1   
    22    12    17 1   
    23    13    33 1   
    24    13    44 1   
    25    14    15 1   
    26    14    34 1   
    27    15    16 2   
    28    15    20 1   
    29    16    17 1   
    30    16    19 1   
    31    17    18 2   
    32    19    27 1   
    33    19    35 1   
    34    19    36 1   
    35    20    21 1   
    36    20    24 1   
    37    20    25 1   
    38    21    22 1   
    39    21    23 1   
    40    24    37 1   
    41    25    26 1   
    42    25    38 1   
    43    25    39 1   
    44    26    40 1   
    45    26    41 1   
    46    26    42 1   
    47    27    43 1   
@<TRIPOS>SUBSTRUCTURE
     1 EHF         1 TEMP              0 ****  ****    0 ROOT
