@<TRIPOS>MOLECULE
EHH
   42    44     1     0     0
SMALL
abcg2


@<TRIPOS>ATOM
      1 N1          -2.6920     1.6900     0.0360 na         1 EHH      -0.154500
      2 C5          -2.0490     2.8710    -0.0180 cc         1 EHH       0.396400
      3 C6          -4.1300     1.5330     0.0520 c3         1 EHH       0.056900
      4 C7          -1.9820    -0.7230     0.0400 ca         1 EHH       0.037000
      5 C8           0.8330     0.8150    -0.1200 ca         1 EHH      -0.116500
      6 C10         -1.4450    -2.9570    -0.6480 ca         1 EHH       0.333900
      7 C13         -2.9500    -1.2970     0.8650 ca         1 EHH      -0.156000
      8 C15          2.8610     0.3790    -1.3370 ca         1 EHH      -0.111500
      9 C17          2.6710    -0.3280     0.9360 ca         1 EHH      -0.111500
     10 C12         -3.1040    -2.6740     0.8680 ca         1 EHH       0.333900
     11 C14          1.5770     0.9070    -1.3050 ca         1 EHH      -0.050300
     12 C16          3.4220    -0.2470    -0.2290 ca         1 EHH      -0.076300
     13 C18          1.3830     0.1960     1.0080 ca         1 EHH      -0.050300
     14 C19          0.9930     1.5390    -2.5360 c3         1 EHH      -0.047800
     15 C2          -1.7270     0.7100    -0.0040 cc         1 EHH      -0.162000
     16 C3          -0.5270     1.3840    -0.0730 cd         1 EHH       0.325500
     17 C9          -1.2150    -1.5950    -0.7350 ca         1 EHH      -0.156000
     18 N11         -2.3730    -3.5020     0.1320 nb         1 EHH      -0.662000
     19 N22          5.4480    -0.9970     0.9620 n8         1 EHH      -0.999200
     20 N4          -0.7490     2.7280    -0.0780 nd         1 EHH      -0.662000
     21 H1          -2.5830     3.8090    -0.0210 h5         1 EHH       0.055100
     22 H2          -4.4340     0.7400    -0.6270 h1         1 EHH       0.055700
     23 H3          -4.4970     1.3080     1.0520 h1         1 EHH       0.055700
     24 H4          -4.5850     2.4620    -0.2800 h1         1 EHH       0.055700
     25 H5          -0.8530    -3.6400    -1.2480 h4         1 EHH       0.019100
     26 H6          -3.5640    -0.6970     1.5210 ha         1 EHH       0.128000
     27 H7           3.4390     0.4530    -2.2530 ha         1 EHH       0.119000
     28 H8           3.1020    -0.8030     1.8090 ha         1 EHH       0.119000
     29 H9           0.1410     1.0300     2.5680 hc         1 EHH       0.043867
     30 H10         -0.1930    -0.6530     2.2100 hc         1 EHH       0.043867
     31 H11          1.2530    -0.2260     3.1100 hc         1 EHH       0.043867
     32 H12          4.7240    -1.8290    -0.7870 h1         1 EHH       0.034200
     33 H13          5.3870    -0.2330    -1.0420 h1         1 EHH       0.034200
     34 H14         -3.8550    -3.1270     1.5070 h4         1 EHH       0.019100
     35 H15          0.0680     1.0400    -2.8350 hc         1 EHH       0.043867
     36 H16          0.7440     2.5880    -2.3760 hc         1 EHH       0.043867
     37 H17          1.6880     1.4810    -3.3720 hc         1 EHH       0.043867
     38 H18         -0.4540    -1.2210    -1.4050 ha         1 EHH       0.128000
     39 H19          6.3260    -1.4830     0.8370 hn         1 EHH       0.396500
     40 H20          5.6820    -0.0880     1.3400 hn         1 EHH       0.396500
     41 C20          0.6080     0.0840     2.2900 c3         1 EHH      -0.047800
     42 C21          4.8070    -0.8370    -0.3300 c3         1 EHH       0.197100
@<TRIPOS>BOND
     1     1     2 1   
     2     1     3 1   
     3     1    15 1   
     4     2    20 2   
     5     2    21 1   
     6     3    22 1   
     7     3    23 1   
     8     3    24 1   
     9     4     7 ar  
    10     4    15 1   
    11     4    17 ar  
    12     5    11 ar  
    13     5    13 ar  
    14     5    16 1   
    15     6    17 ar  
    16     6    18 ar  
    17     6    25 1   
    18     7    10 ar  
    19     7    26 1   
    20     8    11 ar  
    21     8    12 ar  
    22     8    27 1   
    23     9    12 ar  
    24     9    13 ar  
    25     9    28 1   
    26    10    18 ar  
    27    10    34 1   
    28    11    14 1   
    29    12    42 1   
    30    13    41 1   
    31    14    35 1   
    32    14    36 1   
    33    14    37 1   
    34    15    16 2   
    35    16    20 1   
    36    17    38 1   
    37    19    39 1   
    38    19    40 1   
    39    19    42 1   
    40    29    41 1   
    41    30    41 1   
    42    31    41 1   
    43    32    42 1   
    44    33    42 1   
@<TRIPOS>SUBSTRUCTURE
     1 EHH         1 TEMP              0 ****  ****    0 ROOT
