@<TRIPOS>MOLECULE
EHH
   42    44     1     0     0
SMALL
No Charge or Current Charge


@<TRIPOS>ATOM
      1 N1          -2.7360     1.7400     0.0030 na         1 EHH      -0.154500
      2 C5          -2.0450     2.9140    -0.2110 cc         1 EHH       0.396400
      3 C6          -4.1960     1.6120     0.1330 c3         1 EHH       0.056900
      4 C7          -2.0210    -0.7150     0.1070 ca         1 EHH       0.037000
      5 C8           0.7850     0.7160    -0.2000 ca         1 EHH      -0.116500
      6 C10         -1.5880    -2.9970    -0.6010 ca         1 EHH       0.333900
      7 C13         -2.9270    -1.2520     1.0400 ca         1 EHH      -0.156000
      8 C15          3.0150     0.4520    -1.1940 ca         1 EHH      -0.111500
      9 C17          2.4850    -0.6960     0.8660 ca         1 EHH      -0.111500
     10 C12         -3.1120    -2.6430     1.1030 ca         1 EHH       0.333900
     11 C14          1.7280     1.0230    -1.2230 ca         1 EHH      -0.050300
     12 C16          3.3970    -0.4160    -0.1600 ca         1 EHH      -0.076300
     13 C18          1.1940    -0.1340     0.8700 ca         1 EHH      -0.050300
     14 C19          1.3710     1.9050    -2.4190 c3         1 EHH      -0.047800
     15 C2          -1.7980     0.7290     0.0070 cc         1 EHH      -0.162000
     16 C3          -0.5750     1.3200    -0.2440 cd         1 EHH       0.325500
     17 C9          -1.3450    -1.6200    -0.7300 ca         1 EHH      -0.156000
     18 N11         -2.4560    -3.5110     0.2990 nb         1 EHH      -0.662000
     19 N22          5.7340    -0.2410     0.6570 n8         1 EHH      -0.999200
     20 N4          -0.7450     2.6900    -0.3440 nd         1 EHH      -0.662000
     21 H1          -2.5390     3.8770    -0.2550 h5         1 EHH       0.055100
     22 H2          -4.5360     0.7020    -0.3770 h1         1 EHH       0.055700
     23 H3          -4.4670     1.5590     1.1950 h1         1 EHH       0.055700
     24 H4          -4.6880     2.4800    -0.3210 h1         1 EHH       0.055700
     25 H5          -1.0730    -3.7130    -1.2410 h4         1 EHH       0.019100
     26 H6          -3.4720    -0.6100     1.7240 ha         1 EHH       0.128000
     27 H7           3.7230     0.6750    -1.9890 ha         1 EHH       0.119000
     28 H8           2.7920    -1.3430     1.6860 ha         1 EHH       0.119000
     29 H9          -0.4050     0.3880     2.2840 hc         1 EHH       0.043867
     30 H10         -0.1850    -1.3600     2.0290 hc         1 EHH       0.043867
     31 H11          0.9560    -0.4450     3.0090 hc         1 EHH       0.043867
     32 H12          4.7380    -2.0540     0.2690 h1         1 EHH       0.034200
     33 H13          5.1720    -1.1100    -1.1750 h1         1 EHH       0.034200
     34 H14         -3.8040    -3.0770     1.8240 h4         1 EHH       0.019100
     35 H15          0.3740     1.6710    -2.8090 hc         1 EHH       0.043867
     36 H16          1.3930     2.9660    -2.1470 hc         1 EHH       0.043867
     37 H17          2.0750     1.7680    -3.2490 hc         1 EHH       0.043867
     38 H18         -0.6420    -1.2720    -1.4810 ha         1 EHH       0.128000
     39 H19          6.6740    -0.6420     0.5580 hn         1 EHH       0.396500
     40 H20          5.8200     0.6900     0.2330 hn         1 EHH       0.396500
     41 C20          0.3360    -0.3990     2.1060 c3         1 EHH      -0.047800
     42 C21          4.7890    -1.0380    -0.1470 c3         1 EHH       0.197100
@<TRIPOS>BOND
     1     1     2 1   
     2     1     3 1   
     3     1    15 1   
     4     2    20 2   
     5     2    21 1   
     6     3    22 1   
     7     3    23 1   
     8     3    24 1   
     9     4     7 ar  
    10     4    15 1   
    11     4    17 ar  
    12     5    11 ar  
    13     5    13 ar  
    14     5    16 1   
    15     6    17 ar  
    16     6    18 ar  
    17     6    25 1   
    18     7    10 ar  
    19     7    26 1   
    20     8    11 ar  
    21     8    12 ar  
    22     8    27 1   
    23     9    12 ar  
    24     9    13 ar  
    25     9    28 1   
    26    10    18 ar  
    27    10    34 1   
    28    11    14 1   
    29    12    42 1   
    30    13    41 1   
    31    14    35 1   
    32    14    36 1   
    33    14    37 1   
    34    15    16 2   
    35    16    20 1   
    36    17    38 1   
    37    19    39 1   
    38    19    40 1   
    39    19    42 1   
    40    29    41 1   
    41    30    41 1   
    42    31    41 1   
    43    32    42 1   
    44    33    42 1   
@<TRIPOS>SUBSTRUCTURE
     1 EHH         1 TEMP              0 ****  ****    0 ROOT
