@<TRIPOS>MOLECULE
EHI
   43    46     1     0     0
SMALL
bcc


@<TRIPOS>ATOM
      1 C10         21.2120   -16.2180   -32.5790 c3         1 EHI      -0.038800
      2 C11         20.4480   -15.1720   -37.9370 c3         1 EHI      -0.080700
      3 C3          20.8010   -14.6170   -34.4640 cc         1 EHI      -0.012300
      4 C4          20.9960   -14.8290   -33.0810 cc         1 EHI      -0.047300
      5 C5          20.9740   -13.7180   -32.2800 cd         1 EHI      -0.110000
      6 C6          20.7670   -12.4220   -32.8100 cd         1 EHI      -0.170000
      7 C12         21.7190   -15.9250   -38.3580 c3         1 EHI      -0.100700
      8 C13         21.6390   -16.4320   -39.7550 cc         1 EHI       0.403800
      9 N2          20.6050   -13.3480   -34.9340 na         1 EHI       0.196000
     10 C8          20.5490   -14.6600   -36.5440 cd         1 EHI       0.530300
     11 C16         21.3540   -17.6920   -41.4680 cd         1 EHI       0.360800
     12 C15         21.6330   -16.4380   -41.9460 cc         1 EHI      -0.244600
     13 N14         21.8140   -15.6490   -40.8490 na         1 EHI      -0.181900
     14 C18         21.0880   -18.9180   -42.2190 ca         1 EHI      -0.098500
     15 C23         21.0680   -18.9230   -43.6160 ca         1 EHI      -0.114000
     16 C22         20.8130   -20.0890   -44.3210 ca         1 EHI      -0.133500
     17 C21         20.5710   -21.2790   -43.6450 ca         1 EHI      -0.130000
     18 C20         20.5890   -21.2870   -42.2570 ca         1 EHI      -0.133500
     19 C19         20.8440   -20.1200   -41.5500 ca         1 EHI      -0.114000
     20 N17         21.3640   -17.6660   -40.1000 nd         1 EHI      -0.666000
     21 N7          20.4450   -13.3730   -36.2630 nc         1 EHI      -0.604100
     22 N9          20.7650   -15.4600   -35.4870 nd         1 EHI      -0.399300
     23 C1          20.5820   -12.2460   -34.1440 cc         1 EHI      -0.048300
     24 H1          22.0880   -16.6730   -33.0430 hc         1 EHI       0.054700
     25 H2          21.3570   -16.2240   -31.5000 hc         1 EHI       0.054700
     26 H3          20.3590   -16.8580   -32.8110 hc         1 EHI       0.054700
     27 H4          20.2550   -14.3340   -38.6080 hc         1 EHI       0.067200
     28 H5          19.5920   -15.8470   -38.0130 hc         1 EHI       0.067200
     29 H6          21.1200   -13.8310   -31.2130 ha         1 EHI       0.144000
     30 H7          20.7540   -11.5610   -32.1580 ha         1 EHI       0.154000
     31 H8          21.8710   -16.7790   -37.6990 hc         1 EHI       0.071700
     32 H9          22.5870   -15.2720   -38.2370 hc         1 EHI       0.071700
     33 H10         21.7250   -16.0440   -42.9450 h4         1 EHI       0.174000
     34 H11         22.7770   -13.9650   -40.0710 h1         1 EHI       0.054033
     35 H12         22.5610   -13.9740   -41.8190 h1         1 EHI       0.054033
     36 H13         21.1800   -13.6460   -40.7640 h1         1 EHI       0.054033
     37 H14         21.2530   -18.0080   -44.1660 ha         1 EHI       0.136000
     38 H15         20.8030   -20.0670   -45.4030 ha         1 EHI       0.127000
     39 H16         20.3720   -22.1890   -44.1960 ha         1 EHI       0.127000
     40 H17         20.4030   -22.2070   -41.7180 ha         1 EHI       0.127000
     41 H18         20.8550   -20.1400   -40.4690 ha         1 EHI       0.136000
     42 H19         20.4200   -11.2960   -34.6300 h4         1 EHI       0.179000
     43 C24         22.0930   -14.2300   -40.8730 c3         1 EHI       0.027600
@<TRIPOS>BOND
     1     1     4 1   
     2     1    24 1   
     3     1    25 1   
     4     1    26 1   
     5     2     7 1   
     6     2    10 1   
     7     2    27 1   
     8     2    28 1   
     9     3     4 1   
    10     3     9 1   
    11     3    22 2   
    12     4     5 2   
    13     5     6 1   
    14     5    29 1   
    15     6    23 2   
    16     6    30 1   
    17     7     8 1   
    18     7    31 1   
    19     7    32 1   
    20     8    13 1   
    21     8    20 2   
    22     9    21 1   
    23     9    23 1   
    24    10    21 2   
    25    10    22 1   
    26    11    12 2   
    27    11    14 1   
    28    11    20 1   
    29    12    13 1   
    30    12    33 1   
    31    13    43 1   
    32    14    15 ar  
    33    14    19 ar  
    34    15    16 ar  
    35    15    37 1   
    36    16    17 ar  
    37    16    38 1   
    38    17    18 ar  
    39    17    39 1   
    40    18    19 ar  
    41    18    40 1   
    42    19    41 1   
    43    23    42 1   
    44    34    43 1   
    45    35    43 1   
    46    36    43 1   
@<TRIPOS>SUBSTRUCTURE
     1 EHI         1 TEMP              0 ****  ****    0 ROOT
