@<TRIPOS>MOLECULE
EHI
   43    46     1     0     0
SMALL
No Charge or Current Charge


@<TRIPOS>ATOM
      1 C10         20.5150   -16.2350   -32.3530 c3         1 EHI      -0.038800
      2 C11         20.4650   -15.3000   -37.8410 c3         1 EHI      -0.080700
      3 C3          20.7380   -14.6650   -34.3330 cc         1 EHI      -0.063000
      4 C4          20.7630   -14.8600   -32.9190 cc         1 EHI      -0.047300
      5 C5          21.0180   -13.7450   -32.1500 cd         1 EHI      -0.092000
      6 C6          21.2430   -12.4680   -32.7860 cd         1 EHI      -0.152000
      7 C12         21.8060   -15.7380   -38.4780 c3         1 EHI      -0.100700
      8 C13         21.6470   -16.2860   -39.8720 cc         1 EHI       0.403800
      9 N2          20.9550   -13.4440   -34.9070 na         1 EHI       0.297400
     10 C8          20.6300   -14.7370   -36.4550 cd         1 EHI       0.530300
     11 C16         21.3610   -17.6430   -41.5220 cd         1 EHI       0.295500
     12 C15         21.4570   -16.3930   -42.0830 cc         1 EHI      -0.212000
     13 N14         21.6370   -15.5260   -41.0270 na         1 EHI      -0.160500
     14 C18         21.1590   -18.9220   -42.2400 ca         1 EHI      -0.098500
     15 C23         21.0430   -18.9480   -43.6480 ca         1 EHI      -0.096000
     16 C22         20.8510   -20.1620   -44.3300 ca         1 EHI      -0.115500
     17 C21         20.7720   -21.3680   -43.6160 ca         1 EHI      -0.112000
     18 C20         20.8850   -21.3570   -42.2170 ca         1 EHI      -0.115500
     19 C19         21.0770   -20.1440   -41.5330 ca         1 EHI      -0.096000
     20 N17         21.4780   -17.5670   -40.1490 nd         1 EHI      -0.666000
     21 N7          20.8950   -13.4500   -36.2520 nc         1 EHI      -0.604100
     22 N9          20.5250   -15.5210   -35.3120 nd         1 EHI      -0.399300
     23 C1          21.2170   -12.2900   -34.1680 cc         1 EHI      -0.081000
     24 H1          21.2620   -16.9480   -32.7220 hc         1 EHI       0.054700
     25 H2          20.5660   -16.2350   -31.2580 hc         1 EHI       0.054700
     26 H3          19.5240   -16.6030   -32.6420 hc         1 EHI       0.054700
     27 H4          19.9830   -14.5530   -38.4840 hc         1 EHI       0.067200
     28 H5          19.7860   -16.1600   -37.8080 hc         1 EHI       0.067200
     29 H6          21.0510   -13.8240   -31.0680 ha         1 EHI       0.126000
     30 H7          21.4430   -11.6050   -32.1580 ha         1 EHI       0.136000
     31 H8          22.2720   -16.4990   -37.8410 hc         1 EHI       0.071700
     32 H9          22.4990   -14.8880   -38.4900 hc         1 EHI       0.071700
     33 H10         21.4110   -16.0680   -43.1130 h4         1 EHI       0.156000
     34 H11         22.7830   -13.7730   -40.7550 h1         1 EHI       0.054033
     35 H12         21.6900   -13.7480   -42.1690 h1         1 EHI       0.054033
     36 H13         21.0190   -13.5700   -40.5230 h1         1 EHI       0.054033
     37 H14         21.1010   -18.0290   -44.2260 ha         1 EHI       0.118000
     38 H15         20.7630   -20.1680   -45.4150 ha         1 EHI       0.109000
     39 H16         20.6230   -22.3070   -44.1440 ha         1 EHI       0.109000
     40 H17         20.8240   -22.2900   -41.6600 ha         1 EHI       0.109000
     41 H18         21.1620   -20.1600   -40.4490 ha         1 EHI       0.118000
     42 H19         21.3770   -11.3650   -34.7050 h4         1 EHI       0.161000
     43 C24         21.7920   -14.0650   -41.1240 c3         1 EHI       0.056900
@<TRIPOS>BOND
     1     1     4 1   
     2     1    24 1   
     3     1    25 1   
     4     1    26 1   
     5     2     7 1   
     6     2    10 1   
     7     2    27 1   
     8     2    28 1   
     9     3     4 1   
    10     3     9 1   
    11     3    22 2   
    12     4     5 2   
    13     5     6 1   
    14     5    29 1   
    15     6    23 2   
    16     6    30 1   
    17     7     8 1   
    18     7    31 1   
    19     7    32 1   
    20     8    13 1   
    21     8    20 2   
    22     9    21 1   
    23     9    23 1   
    24    10    21 2   
    25    10    22 1   
    26    11    12 2   
    27    11    14 1   
    28    11    20 1   
    29    12    13 1   
    30    12    33 1   
    31    13    43 1   
    32    14    15 ar  
    33    14    19 ar  
    34    15    16 ar  
    35    15    37 1   
    36    16    17 ar  
    37    16    38 1   
    38    17    18 ar  
    39    17    39 1   
    40    18    19 ar  
    41    18    40 1   
    42    19    41 1   
    43    23    42 1   
    44    34    43 1   
    45    35    43 1   
    46    36    43 1   
@<TRIPOS>SUBSTRUCTURE
     1 EHI         1 TEMP              0 ****  ****    0 ROOT
