@<TRIPOS>MOLECULE
EHK
   38    40     1     0     0
SMALL
No Charge or Current Charge


@<TRIPOS>ATOM
      1 C4           1.0840     2.2970     0.0860 c          1 EHK       0.537200
      2 C8          -1.2220     0.6400    -0.1370 cc         1 EHK       0.380200
      3 C10         -3.5660    -0.1050     0.5810 ca         1 EHK      -0.144500
      4 N12         -4.4510    -2.2740    -0.0460 nb         1 EHK      -0.657000
      5 C13         -3.2920    -2.5150    -0.6950 ca         1 EHK       0.332400
      6 C15          2.4070     0.1670    -0.0680 c6         1 EHK       0.118700
      7 C17          3.9070    -1.6070    -1.1190 c6         1 EHK       0.153300
      8 C20          2.7060    -0.4680     1.3150 c6         1 EHK      -0.125900
      9 C2          -1.4010     2.0930    -0.0290 cc         1 EHK      -0.103800
     10 C3          -0.2630     2.8660     0.0850 cd         1 EHK      -0.290200
     11 O5           2.0890     2.9870     0.1980 o          1 EHK      -0.540000
     12 N6           1.0950     0.8880    -0.0660 n          1 EHK      -0.114800
     13 N7          -0.0220     0.0420    -0.1580 nd         1 EHK      -0.418300
     14 C9          -2.3610    -0.3190    -0.1330 ca         1 EHK      -0.066900
     15 C11         -4.5720    -1.0870     0.5860 ca         1 EHK       0.332400
     16 C14         -2.2350    -1.5910    -0.7470 ca         1 EHK      -0.144500
     17 C16          2.5230    -0.9220    -1.1750 c6         1 EHK      -0.125900
     18 N18          4.1520    -2.1860     0.2240 n7         1 EHK      -0.851400
     19 C19          4.0790    -1.1780     1.3100 c6         1 EHK       0.153300
     20 H2          -3.2040    -3.4840    -1.1860 h4         1 EHK       0.021600
     21 H3           3.2040     0.8970    -0.2710 h1         1 EHK       0.092700
     22 H4           3.9580    -2.4000    -1.8810 h1         1 EHK       0.055950
     23 H5           4.6930    -0.8730    -1.3560 h1         1 EHK       0.055950
     24 H6           2.6970     0.3080     2.0920 hc         1 EHK       0.057700
     25 H7           1.9180    -1.1870     1.5800 hc         1 EHK       0.057700
     26 H8          -3.1970     2.9270     0.8540 hc         1 EHK       0.055700
     27 H9          -2.6480     3.7610    -0.5960 hc         1 EHK       0.055700
     28 H10         -3.4480     2.2080    -0.7630 hc         1 EHK       0.055700
     29 H11         -0.2960     3.9460     0.1630 ha         1 EHK       0.214000
     30 H12         -5.4990    -0.9240     1.1340 h4         1 EHK       0.021600
     31 H13         -1.3360    -1.8670    -1.2900 ha         1 EHK       0.128000
     32 H14          1.7430    -1.6870    -1.0580 hc         1 EHK       0.057700
     33 H15          2.3750    -0.4680    -2.1640 hc         1 EHK       0.057700
     34 H16          3.4360    -2.9020     0.4010 hn         1 EHK       0.409000
     35 H18          4.8780    -0.4320     1.1750 h1         1 EHK       0.055950
     36 H19          4.2470    -1.6660     2.2820 h1         1 EHK       0.055950
     37 C1          -2.7490     2.7720    -0.1340 c3         1 EHK      -0.059900
     38 H1          -3.7280     0.7830     1.1780 ha         1 EHK       0.128000
@<TRIPOS>BOND
     1     1    10 1   
     2     1    11 2   
     3     1    12 1   
     4     2     9 1   
     5     2    13 2   
     6     2    14 1   
     7     3    14 ar  
     8     3    15 ar  
     9     3    38 1   
    10     4     5 ar  
    11     4    15 ar  
    12     5    16 ar  
    13     5    20 1   
    14     6     8 1   
    15     6    12 1   
    16     6    17 1   
    17     6    21 1   
    18     7    17 1   
    19     7    18 1   
    20     7    22 1   
    21     7    23 1   
    22     8    19 1   
    23     8    24 1   
    24     8    25 1   
    25     9    10 2   
    26     9    37 1   
    27    10    29 1   
    28    12    13 1   
    29    14    16 ar  
    30    15    30 1   
    31    16    31 1   
    32    17    32 1   
    33    17    33 1   
    34    18    19 1   
    35    18    34 1   
    36    19    35 1   
    37    19    36 1   
    38    26    37 1   
    39    27    37 1   
    40    28    37 1   
@<TRIPOS>SUBSTRUCTURE
     1 EHK         1 TEMP              0 ****  ****    0 ROOT
