@<TRIPOS>MOLECULE
EHK
   38    40     1     0     0
SMALL
abcg2


@<TRIPOS>ATOM
      1 C4           1.0780     2.3020    -0.0970 c          1 EHK       0.537200
      2 C8          -1.1530     0.6620    -0.0370 cc         1 EHK       0.380200
      3 C10         -3.3430    -0.2030     0.8450 ca         1 EHK      -0.144500
      4 N12         -4.2850    -2.2470     0.0360 nb         1 EHK      -0.657000
      5 C13         -3.2400    -2.3650    -0.7760 ca         1 EHK       0.332400
      6 C15          2.3770     0.1910     0.0170 c6         1 EHK       0.118700
      7 C17          3.8340    -1.5350    -1.0440 c6         1 EHK       0.153300
      8 C20          2.5460    -0.5370     1.3460 c6         1 EHK      -0.125900
      9 C2          -1.3620     2.0790    -0.1440 cc         1 EHK      -0.103800
     10 C3          -0.2520     2.8520    -0.1740 cd         1 EHK      -0.290200
     11 O5           2.1050     2.9700    -0.0990 o          1 EHK      -0.540000
     12 N6           1.1040     0.9190    -0.0350 n          1 EHK      -0.114800
     13 N7           0.0360     0.1510    -0.0050 nd         1 EHK      -0.418300
     14 C9          -2.2540    -0.3240    -0.0110 ca         1 EHK      -0.066900
     15 C11         -4.3210    -1.1850     0.8290 ca         1 EHK       0.332400
     16 C14         -2.2080    -1.4440    -0.8350 ca         1 EHK      -0.144500
     17 C16          2.5080    -0.7790    -1.1520 c6         1 EHK      -0.125900
     18 N18          4.0280    -2.2090     0.2240 n7         1 EHK      -0.851400
     19 C19          3.8690    -1.3050     1.3470 c6         1 EHK       0.153300
     20 H2          -3.2200    -3.2390    -1.4170 h4         1 EHK       0.021600
     21 H3           3.1540     0.9510    -0.0690 h1         1 EHK       0.092700
     22 H4           3.9110    -2.2650    -1.8510 h1         1 EHK       0.055950
     23 H5           4.6620    -0.8310    -1.1830 h1         1 EHK       0.055950
     24 H6           2.5220     0.1740     2.1750 hc         1 EHK       0.057700
     25 H7           1.7170    -1.2370     1.4890 hc         1 EHK       0.057700
     26 H8          -3.2130     2.7540     0.7110 hc         1 EHK       0.055700
     27 H9          -2.6600     3.6890    -0.6690 hc         1 EHK       0.055700
     28 H10         -3.3740     2.0910    -0.9070 hc         1 EHK       0.055700
     29 H11         -0.3240     3.9270    -0.2720 ha         1 EHK       0.214000
     30 H12         -5.1700    -1.1060     1.4980 h4         1 EHK       0.021600
     31 H13         -1.3860    -1.5940    -1.5200 ha         1 EHK       0.128000
     32 H14          1.6770    -1.4910    -1.1340 hc         1 EHK       0.057700
     33 H15          2.4580    -0.2400    -2.1010 hc         1 EHK       0.057700
     34 H16          3.3660    -2.9720     0.3060 hn         1 EHK       0.409000
     35 H18          4.7020    -0.5940     1.3280 h1         1 EHK       0.055950
     36 H19          3.9700    -1.8700     2.2750 h1         1 EHK       0.055950
     37 C1          -2.7250     2.6820    -0.2620 c3         1 EHK      -0.059900
     38 H1          -3.4320     0.6170     1.5430 ha         1 EHK       0.128000
@<TRIPOS>BOND
     1     1    10 1   
     2     1    11 2   
     3     1    12 1   
     4     2     9 1   
     5     2    13 2   
     6     2    14 1   
     7     3    14 ar  
     8     3    15 ar  
     9     3    38 1   
    10     4     5 ar  
    11     4    15 ar  
    12     5    16 ar  
    13     5    20 1   
    14     6     8 1   
    15     6    12 1   
    16     6    17 1   
    17     6    21 1   
    18     7    17 1   
    19     7    18 1   
    20     7    22 1   
    21     7    23 1   
    22     8    19 1   
    23     8    24 1   
    24     8    25 1   
    25     9    10 2   
    26     9    37 1   
    27    10    29 1   
    28    12    13 1   
    29    14    16 ar  
    30    15    30 1   
    31    16    31 1   
    32    17    32 1   
    33    17    33 1   
    34    18    19 1   
    35    18    34 1   
    36    19    35 1   
    37    19    36 1   
    38    26    37 1   
    39    27    37 1   
    40    28    37 1   
@<TRIPOS>SUBSTRUCTURE
     1 EHK         1 TEMP              0 ****  ****    0 ROOT
