@<TRIPOS>MOLECULE
EHL
   33    35     1     0     0
SMALL
bcc


@<TRIPOS>ATOM
      1 C3          70.1550   -75.8880    10.4890 cc         1 EHL      -0.328600
      2 C5          76.5330   -75.4970     8.9100 cc         1 EHL       0.345000
      3 C9          76.3470   -72.1900     5.8050 ca         1 EHL      -0.086500
      4 C13         75.3180   -74.1300     4.8160 ca         1 EHL      -0.086500
      5 O1          68.0370   -76.4870    10.9510 o          1 EHL      -0.207000
      6 N           73.5790   -75.2630     9.1880 ns         1 EHL      -0.552400
      7 C           74.1820   -75.3310     7.9390 c          1 EHL       0.728700
      8 O           73.5750   -75.5680     6.9250 o          1 EHL      -0.487100
      9 C1          72.2840   -75.5930     9.4660 cc         1 EHL       0.592300
     10 C10         75.9970   -71.4370     4.6950 ca         1 EHL      -0.134000
     11 C11         75.3080   -72.0270     3.6430 ca         1 EHL      -0.107000
     12 C12         74.9750   -73.3740     3.7050 ca         1 EHL      -0.134000
     13 C2          70.2990   -76.4770     9.2710 cd         1 EHL       0.491200
     14 C4          75.6270   -75.0700     7.9830 cd         1 EHL      -0.438200
     15 C7          76.4100   -74.3150     7.0580 cd         1 EHL       0.446800
     16 C8          76.0030   -73.5390     5.8760 ca         1 EHL      -0.162500
     17 N1          71.5090   -76.3050     8.7010 nd         1 EHL      -0.672000
     18 N2          69.0260   -75.9050    11.3330 no         1 EHL       0.366200
     19 N3          77.6550   -74.2970     7.4310 nc         1 EHL      -0.346300
     20 O2          69.1270   -75.3260    12.3950 o          1 EHL      -0.207000
     21 O3          77.7310   -75.0410     8.5710 os         1 EHL      -0.104100
     22 S           71.5900   -75.0610    10.9630 ss         1 EHL      -0.090300
     23 H2          76.8790   -71.7260     6.6260 ha         1 EHL       0.145000
     24 H3          75.0630   -75.1790     4.8520 ha         1 EHL       0.145000
     25 H4          74.1000   -74.7990     9.9180 hn         1 EHL       0.336500
     26 H6          76.2610   -70.3880     4.6520 ha         1 EHL       0.137000
     27 H7          75.0320   -71.4390     2.7780 ha         1 EHL       0.134000
     28 H8          74.4480   -73.8410     2.8830 ha         1 EHL       0.137000
     29 H10         69.5390   -77.0530     8.7640 h4         1 EHL       0.074100
     30 H11         77.3120   -76.9730    10.2240 hc         1 EHL       0.073033
     31 H12         76.3820   -75.7100    11.0230 hc         1 EHL       0.073033
     32 H13         75.5530   -76.9640    10.0960 hc         1 EHL       0.073033
     33 C6          76.4370   -76.3320    10.1280 c3         1 EHL      -0.153400
@<TRIPOS>BOND
     1     1    13 2   
     2     1    18 1   
     3     1    22 1   
     4     2    14 2   
     5     2    21 1   
     6     2    33 1   
     7     3    10 ar  
     8     3    16 ar  
     9     3    23 1   
    10     4    12 ar  
    11     4    16 ar  
    12     4    24 1   
    13     5    18 1   
    14     6     7 1   
    15     6     9 1   
    16     6    25 1   
    17     7     8 2   
    18     7    14 1   
    19     9    17 2   
    20     9    22 1   
    21    10    11 ar  
    22    10    26 1   
    23    11    12 ar  
    24    11    27 1   
    25    12    28 1   
    26    13    17 1   
    27    13    29 1   
    28    14    15 1   
    29    15    16 1   
    30    15    19 2   
    31    18    20 1   
    32    19    21 1   
    33    30    33 1   
    34    31    33 1   
    35    32    33 1   
@<TRIPOS>SUBSTRUCTURE
     1 EHL         1 TEMP              0 ****  ****    0 ROOT
