@<TRIPOS>MOLECULE
EHL
   33    35     1     0     0
SMALL
No Charge or Current Charge


@<TRIPOS>ATOM
      1 C3          70.1460   -76.2720    10.5110 cc         1 EHL      -0.408200
      2 C5          76.4930   -75.2270     9.0520 cc         1 EHL       0.235300
      3 C9          76.5720   -72.2900     5.4820 ca         1 EHL      -0.068500
      4 C13         75.2400   -74.2430     4.9090 ca         1 EHL      -0.068500
      5 O1          67.9190   -76.4980    10.9410 o          1 EHL      -0.397000
      6 N           73.5940   -75.4570     9.1790 ns         1 EHL      -0.485400
      7 C           74.1400   -74.7640     8.1260 c          1 EHL       0.661700
      8 O           73.4680   -74.2000     7.2800 o          1 EHL      -0.487100
      9 C1          72.2710   -75.6470     9.5100 cc         1 EHL       0.592300
     10 C10         76.2340   -71.6990     4.2520 ca         1 EHL      -0.116000
     11 C11         75.3950   -72.3770     3.3520 ca         1 EHL      -0.089000
     12 C12         74.9020   -73.6510     3.6790 ca         1 EHL      -0.116000
     13 C2          70.0540   -75.4890     9.3890 cd         1 EHL       0.425900
     14 C4          75.6250   -74.7510     8.1000 cd         1 EHL      -0.307600
     15 C7          76.4580   -74.1960     7.0990 cd         1 EHL       0.381500
     16 C8          76.0590   -73.5580     5.8320 ca         1 EHL      -0.162500
     17 N1          71.2690   -75.1330     8.8180 nd         1 EHL      -0.672000
     18 N2          69.0670   -76.7820    11.2970 no         1 EHL       0.746200
     19 N3          77.7420   -74.2750     7.3980 nc         1 EHL      -0.346300
     20 O2          69.3420   -77.4740    12.2820 o          1 EHL      -0.397000
     21 O3          77.7780   -74.9550     8.6570 os         1 EHL      -0.059700
     22 S           71.8150   -76.5970    10.9030 ss         1 EHL       0.054600
     23 H2          77.2290   -71.7580     6.1680 ha         1 EHL       0.127000
     24 H3          74.8660   -75.2380     5.1430 ha         1 EHL       0.127000
     25 H4          74.2640   -75.8970     9.7850 hn         1 EHL       0.336500
     26 H6          76.6250   -70.7170     3.9960 ha         1 EHL       0.119000
     27 H7          75.1340   -71.9200     2.4000 ha         1 EHL       0.116000
     28 H8          74.2630   -74.1830     2.9780 ha         1 EHL       0.119000
     29 H10         69.1330   -75.1430     8.9330 h4         1 EHL       0.074100
     30 H11         77.2900   -76.0530    10.8720 hc         1 EHL       0.073033
     31 H12         75.7130   -75.2890    11.0670 hc         1 EHL       0.073033
     32 H13         75.8560   -76.8900    10.2790 hc         1 EHL       0.073033
     33 C6          76.3180   -75.9010    10.3880 c3         1 EHL      -0.153400
@<TRIPOS>BOND
     1     1    13 2   
     2     1    18 1   
     3     1    22 1   
     4     2    14 2   
     5     2    21 1   
     6     2    33 1   
     7     3    10 ar  
     8     3    16 ar  
     9     3    23 1   
    10     4    12 ar  
    11     4    16 ar  
    12     4    24 1   
    13     5    18 1   
    14     6     7 1   
    15     6     9 1   
    16     6    25 1   
    17     7     8 2   
    18     7    14 1   
    19     9    17 2   
    20     9    22 1   
    21    10    11 ar  
    22    10    26 1   
    23    11    12 ar  
    24    11    27 1   
    25    12    28 1   
    26    13    17 1   
    27    13    29 1   
    28    14    15 1   
    29    15    16 1   
    30    15    19 2   
    31    18    20 1   
    32    19    21 1   
    33    30    33 1   
    34    31    33 1   
    35    32    33 1   
@<TRIPOS>SUBSTRUCTURE
     1 EHL         1 TEMP              0 ****  ****    0 ROOT
