@<TRIPOS>MOLECULE
EHM
   19    18     1     0     0
SMALL
No Charge or Current Charge


@<TRIPOS>ATOM
      1 O4          -0.5000     0.8050     1.0690 oh         1 EHM      -0.706000
      2 C4           0.8280     1.1790     0.6540 c3         1 EHM       0.132600
      3 C3           0.7590     1.9890    -0.6700 c3         1 EHM       0.137300
      4 O3          -0.1880     3.0510    -0.4820 oh         1 EHM      -0.631000
      5 C2           2.1350     2.5740    -1.1050 c3         1 EHM       0.059300
      6 O2           3.1120     1.5060    -1.2740 oh         1 EHM      -0.698000
      7 C1           1.9880     3.4290    -2.4020 c          1 EHM       0.585100
      8 O1           1.8680     2.9130    -3.5090 o          1 EHM      -0.568100
      9 N            2.0630     4.8100    -2.2300 ns         1 EHM      -0.378400
     10 ON           2.2350     5.6960    -3.3630 oh         1 EHM      -0.416100
     11 HO4         -0.4040     0.2340     1.8690 ho         1 EHM       0.506000
     12 H41          1.4440     0.2830     0.4990 h1         1 EHM       0.027700
     13 H42          1.3140     1.7870     1.4290 h1         1 EHM       0.027700
     14 H3           0.4080     1.3100    -1.4600 h1         1 EHM       0.104700
     15 HO3         -0.8570     2.6690     0.1340 ho         1 EHM       0.435000
     16 H2           2.4730     3.2500    -0.3080 h1         1 EHM       0.070700
     17 HO2          3.0380     1.1810    -2.2060 ho         1 EHM       0.529000
     18 HN           2.3120     5.1900    -1.3170 hn         1 EHM       0.335500
     19 HON          1.5270     6.3720    -3.2390 ho         1 EHM       0.447000
@<TRIPOS>BOND
     1     1     2 1   
     2     1    11 1   
     3     2     3 1   
     4     2    12 1   
     5     2    13 1   
     6     3     4 1   
     7     3     5 1   
     8     3    14 1   
     9     4    15 1   
    10     5     6 1   
    11     5     7 1   
    12     5    16 1   
    13     6    17 1   
    14     7     8 2   
    15     7     9 1   
    16     9    10 1   
    17     9    18 1   
    18    10    19 1   
@<TRIPOS>SUBSTRUCTURE
     1 EHM         1 TEMP              0 ****  ****    0 ROOT
