@<TRIPOS>MOLECULE
EHM
   19    18     1     0     0
SMALL
bcc


@<TRIPOS>ATOM
      1 O4          -0.4450     0.5700     0.7900 oh         1 EHM      -0.583800
      2 C4           0.7850     1.2260     0.5980 c3         1 EHM       0.109400
      3 C3           0.7440     1.9650    -0.7270 c3         1 EHM       0.114100
      4 O3          -0.2360     2.9740    -0.7560 oh         1 EHM      -0.568800
      5 C2           2.1270     2.5440    -1.0690 c3         1 EHM       0.036100
      6 O2           3.0830     1.5460    -1.3040 oh         1 EHM      -0.575800
      7 C1           1.9940     3.4270    -2.3070 c          1 EHM       0.652100
      8 O1           1.8050     2.9400    -3.4090 o          1 EHM      -0.568100
      9 N            2.0980     4.7380    -2.0630 ns         1 EHM      -0.445400
     10 ON           2.1020     5.6340    -3.0870 oh         1 EHM      -0.377100
     11 HO4         -0.4020     0.0920     1.6230 ho         1 EHM       0.407000
     12 H41          1.6240     0.5210     0.5850 h1         1 EHM       0.027700
     13 H42          0.9890     1.9510     1.4010 h1         1 EHM       0.027700
     14 H3           0.4710     1.2580    -1.5200 h1         1 EHM       0.104700
     15 HO3         -0.1100     3.5600    -0.0020 ho         1 EHM       0.396000
     16 H2           2.4960     3.1260    -0.2170 h1         1 EHM       0.070700
     17 HO2          2.8410     1.0830    -2.1160 ho         1 EHM       0.430000
     18 HN           2.3890     5.1060    -1.1690 hn         1 EHM       0.335500
     19 HON          1.1980     5.9660    -3.1600 ho         1 EHM       0.408000
@<TRIPOS>BOND
     1     1     2 1   
     2     1    11 1   
     3     2     3 1   
     4     2    12 1   
     5     2    13 1   
     6     3     4 1   
     7     3     5 1   
     8     3    14 1   
     9     4    15 1   
    10     5     6 1   
    11     5     7 1   
    12     5    16 1   
    13     6    17 1   
    14     7     8 2   
    15     7     9 1   
    16     9    10 1   
    17     9    18 1   
    18    10    19 1   
@<TRIPOS>SUBSTRUCTURE
     1 EHM         1 TEMP              0 ****  ****    0 ROOT
