@<TRIPOS>MOLECULE
EHN
    8     7     1     0     0
SMALL
No Charge or Current Charge


@<TRIPOS>ATOM
      1 C1           0.7630     0.0450     0.0040 c3         1 EHN      -0.089600
      2 C2          -0.7740    -0.0010     0.0090 c3         1 EHN      -0.089600
      3 H1           1.1510     0.0370     1.0300 hc         1 EHN       0.029700
      4 H2           1.1720    -0.8240    -0.5270 hc         1 EHN       0.029700
      5 H3           1.1200     0.9540    -0.4940 hc         1 EHN       0.029700
      6 H4          -1.1820     0.8680     0.5400 hc         1 EHN       0.029700
      7 H5          -1.1620     0.0070    -1.0170 hc         1 EHN       0.029700
      8 H6          -1.1300    -0.9100     0.5070 hc         1 EHN       0.029700
@<TRIPOS>BOND
     1     1     2 1   
     2     1     3 1   
     3     1     4 1   
     4     1     5 1   
     5     2     6 1   
     6     2     7 1   
     7     2     8 1   
@<TRIPOS>SUBSTRUCTURE
     1 EHN         1 TEMP              0 ****  ****    0 ROOT
