@<TRIPOS>MOLECULE
EHN
    8     7     1     0     0
SMALL
abcg2


@<TRIPOS>ATOM
      1 C1           0.7550     0.0440     0.0040 c3         1 EHN      -0.089600
      2 C2          -0.7660    -0.0000     0.0090 c3         1 EHN      -0.089600
      3 H1           1.1570     0.0320     1.0180 hc         1 EHN       0.029700
      4 H2           1.1770    -0.8110    -0.5250 hc         1 EHN       0.029700
      5 H3           1.1250     0.9470    -0.4840 hc         1 EHN       0.029700
      6 H4          -1.1870     0.8610     0.5290 hc         1 EHN       0.029700
      7 H5          -1.1670     0.0010    -1.0050 hc         1 EHN       0.029700
      8 H6          -1.1360    -0.8980     0.5050 hc         1 EHN       0.029700
@<TRIPOS>BOND
     1     1     2 1   
     2     1     3 1   
     3     1     4 1   
     4     1     5 1   
     5     2     6 1   
     6     2     7 1   
     7     2     8 1   
@<TRIPOS>SUBSTRUCTURE
     1 EHN         1 TEMP              0 ****  ****    0 ROOT
