@<TRIPOS>MOLECULE
EHO
   26    27     1     0     0
SMALL
No Charge or Current Charge


@<TRIPOS>ATOM
      1 C4           7.6460    -6.8680   -17.0640 ca         1 EHO      -0.056000
      2 C5           6.3900    -6.3580   -16.6600 ca         1 EHO      -0.200600
      3 C6           5.3220    -6.3570   -17.5880 ca         1 EHO       0.336000
      4 C11          0.5800    -4.8570   -17.8920 ca         1 EHO      -0.082000
      5 C7           2.9670    -5.3610   -17.8950 ca         1 EHO       0.360000
      6 C8           3.0750    -4.7960   -19.1790 ca         1 EHO      -0.186500
      7 C9           1.9400    -4.2770   -19.8250 ca         1 EHO      -0.082000
      8 C10          0.6920    -4.3120   -19.1820 ca         1 EHO      -0.189000
      9 C12          1.7200    -5.3740   -17.2500 ca         1 EHO      -0.186500
     10 C13          6.2290    -5.8220   -15.2550 c          1 EHO       0.722600
     11 N1           4.0740    -5.8640   -17.2170 nu         1 EHO      -1.002000
     12 C3           7.8300    -7.3840   -18.3570 ca         1 EHO      -0.186000
     13 C1           5.5130    -6.8980   -18.8740 ca         1 EHO      -0.205000
     14 C2           6.7620    -7.4050   -19.2620 ca         1 EHO      -0.099000
     15 O1           7.2160    -5.3620   -14.6990 o          1 EHO      -0.712000
     16 O2           5.1330    -5.8930   -14.7130 o          1 EHO      -0.712000
     17 H1           8.4850    -6.8740   -16.3700 ha         1 EHO       0.126000
     18 H3           4.0400    -4.7380   -19.6730 ha         1 EHO       0.118500
     19 H4           2.0290    -3.8420   -20.8180 ha         1 EHO       0.091500
     20 H5          -0.1880    -3.9100   -19.6790 ha         1 EHO       0.093000
     21 H6           1.6280    -5.7930   -16.2530 ha         1 EHO       0.118500
     22 H7           4.0000    -5.8090   -16.1910 hn         1 EHO       0.569000
     23 H8           8.8000    -7.7760   -18.6520 ha         1 EHO       0.089000
     24 H9           4.6870    -6.9460   -19.5770 ha         1 EHO       0.100000
     25 H10          6.8980    -7.8190   -20.2590 ha         1 EHO       0.082000
     26 H2          -0.3850    -4.8780   -17.3900 ha         1 EHO       0.091500
@<TRIPOS>BOND
     1     1     2 ar  
     2     1    12 ar  
     3     1    17 1   
     4     2     3 ar  
     5     2    10 1   
     6     3    11 1   
     7     3    13 ar  
     8     4     8 ar  
     9     4     9 ar  
    10     4    26 1   
    11     5     6 ar  
    12     5     9 ar  
    13     5    11 1   
    14     6     7 ar  
    15     6    18 1   
    16     7     8 ar  
    17     7    19 1   
    18     8    20 1   
    19     9    21 1   
    20    10    15 1   
    21    10    16 1   
    22    11    22 1   
    23    12    14 ar  
    24    12    23 1   
    25    13    14 ar  
    26    13    24 1   
    27    14    25 1   
@<TRIPOS>SUBSTRUCTURE
     1 EHO         1 TEMP              0 ****  ****    0 ROOT
