@<TRIPOS>MOLECULE
EHO
   26    27     1     0     0
SMALL
bcc


@<TRIPOS>ATOM
      1 C4           7.5960    -6.8100   -17.1060 ca         1 EHO      -0.074000
      2 C5           6.3550    -6.3480   -16.6730 ca         1 EHO      -0.200600
      3 C6           5.2730    -6.3680   -17.5870 ca         1 EHO       0.197600
      4 C11          0.6350    -4.8110   -17.8920 ca         1 EHO      -0.100000
      5 C7           2.9840    -5.4190   -17.8830 ca         1 EHO       0.221600
      6 C8           3.0900    -4.9000   -19.1800 ca         1 EHO      -0.204500
      7 C9           1.9790    -4.3670   -19.8170 ca         1 EHO      -0.100000
      8 C10          0.7430    -4.3170   -19.1870 ca         1 EHO      -0.207000
      9 C12          1.7320    -5.3590   -17.2520 ca         1 EHO      -0.204500
     10 C13          6.2220    -5.8640   -15.2340 c          1 EHO       0.933200
     11 N1           4.0380    -5.9360   -17.1580 nu         1 EHO      -0.670000
     12 C3           7.8040    -7.2940   -18.3870 ca         1 EHO      -0.204000
     13 C1           5.4830    -6.8830   -18.8750 ca         1 EHO      -0.223000
     14 C2           6.7310    -7.3340   -19.2670 ca         1 EHO      -0.117000
     15 O1           7.2690    -5.7000   -14.5900 o          1 EHO      -0.817300
     16 O2           5.0570    -5.6750   -14.7930 o          1 EHO      -0.817300
     17 H1           8.4210    -6.7830   -16.4070 ha         1 EHO       0.144000
     18 H3           4.0430    -4.8850   -19.6900 ha         1 EHO       0.136500
     19 H4           2.0910    -3.9710   -20.8190 ha         1 EHO       0.109500
     20 H5          -0.1170    -3.8970   -19.6920 ha         1 EHO       0.111000
     21 H6           1.6300    -5.7490   -16.2450 ha         1 EHO       0.136500
     22 H7           4.0450    -5.7940   -16.1380 hn         1 EHO       0.513800
     23 H8           8.7820    -7.6420   -18.6920 ha         1 EHO       0.107000
     24 H9           4.6570    -6.9600   -19.5690 ha         1 EHO       0.118000
     25 H10          6.8570    -7.7280   -20.2680 ha         1 EHO       0.100000
     26 H2          -0.3160    -4.7780   -17.3750 ha         1 EHO       0.109500
@<TRIPOS>BOND
     1     1     2 ar  
     2     1    12 ar  
     3     1    17 1   
     4     2     3 ar  
     5     2    10 1   
     6     3    11 1   
     7     3    13 ar  
     8     4     8 ar  
     9     4     9 ar  
    10     4    26 1   
    11     5     6 ar  
    12     5     9 ar  
    13     5    11 1   
    14     6     7 ar  
    15     6    18 1   
    16     7     8 ar  
    17     7    19 1   
    18     8    20 1   
    19     9    21 1   
    20    10    15 1   
    21    10    16 1   
    22    11    22 1   
    23    12    14 ar  
    24    12    23 1   
    25    13    14 ar  
    26    13    24 1   
    27    14    25 1   
@<TRIPOS>SUBSTRUCTURE
     1 EHO         1 TEMP              0 ****  ****    0 ROOT
