@<TRIPOS>MOLECULE
EHP
   23    23     1     0     0
SMALL
abcg2


@<TRIPOS>ATOM
      1 N            1.0320     1.2790     1.5310 n8         1 EHP      -0.988200
      2 CA          -0.1250     0.4060     1.5800 c3         1 EHP       0.027500
      3 C           -0.4570     0.0050     3.0350 c          1 EHP       0.723000
      4 O            0.4690     0.0590     3.8680 o          1 EHP      -0.729000
      5 OXT         -1.6230    -0.3830     3.2420 o          1 EHP      -0.729000
      6 CB           0.0140    -0.8900     0.7460 c3         1 EHP      -0.075100
      7 CG           0.2530    -0.6080    -0.7080 ca         1 EHP      -0.008300
      8 CD1          1.5400    -0.5860    -1.2400 ca         1 EHP      -0.160000
      9 CD2         -0.8240    -0.3020    -1.5390 ca         1 EHP      -0.201000
     10 CE1          1.7360    -0.2670    -2.5790 ca         1 EHP      -0.083000
     11 CE2         -0.6250     0.0190    -2.8770 ca         1 EHP       0.128100
     12 CZ           0.6660     0.0360    -3.4040 ca         1 EHP      -0.170000
     13 OH          -1.6450     0.3190    -3.7090 oh         1 EHP      -0.551100
     14 HN1          1.3740     1.3600     0.5810 hn         1 EHP       0.379500
     15 HN2          1.7760     0.8580     2.0740 hn         1 EHP       0.379500
     16 HA          -0.9860     0.9530     1.1770 h1         1 EHP       0.045700
     17 HB1          0.8400    -1.4830     1.1510 hc         1 EHP       0.056200
     18 HB2         -0.8960    -1.4830     0.8620 hc         1 EHP       0.056200
     19 HD1          2.3880    -0.8260    -0.6110 ha         1 EHP       0.113000
     20 HD2         -1.8320    -0.3190    -1.1340 ha         1 EHP       0.119000
     21 HE1          2.7390    -0.2540    -2.9860 ha         1 EHP       0.098000
     22 HZ           0.8220     0.2820    -4.4470 ha         1 EHP       0.111000
     23 HOH         -2.4830     0.2830    -3.2360 ho         1 EHP       0.460000
@<TRIPOS>BOND
     1     1     2 1   
     2     1    14 1   
     3     1    15 1   
     4     2     3 1   
     5     2     6 1   
     6     2    16 1   
     7     3     4 1   
     8     3     5 1   
     9     6     7 1   
    10     6    17 1   
    11     6    18 1   
    12     7     8 ar  
    13     7     9 ar  
    14     8    10 ar  
    15     8    19 1   
    16     9    11 ar  
    17     9    20 1   
    18    10    12 ar  
    19    10    21 1   
    20    11    12 ar  
    21    11    13 1   
    22    12    22 1   
    23    13    23 1   
@<TRIPOS>SUBSTRUCTURE
     1 EHP         1 TEMP              0 ****  ****    0 ROOT
