@<TRIPOS>MOLECULE
EHP
   23    23     1     0     0
SMALL
No Charge or Current Charge


@<TRIPOS>ATOM
      1 N            0.8700     1.4010     1.4790 n8         1 EHP      -0.988200
      2 CA          -0.2050     0.3540     1.6310 c3         1 EHP       0.027500
      3 C           -0.5760    -0.0750     3.1120 c          1 EHP       0.723000
      4 O            0.3100    -0.5180     3.8340 o          1 EHP      -0.729000
      5 OXT         -1.7220     0.1140     3.5020 o          1 EHP      -0.729000
      6 CB           0.1370    -0.8890     0.7680 c3         1 EHP      -0.075100
      7 CG           0.3330    -0.5740    -0.7140 ca         1 EHP      -0.008300
      8 CD1          1.6160    -0.6280    -1.2930 ca         1 EHP      -0.160000
      9 CD2         -0.7730    -0.2350    -1.5180 ca         1 EHP      -0.201000
     10 CE1          1.7940    -0.3410    -2.6580 ca         1 EHP      -0.083000
     11 CE2         -0.5950     0.0510    -2.8810 ca         1 EHP       0.128100
     12 CZ           0.6850    -0.0010    -3.4510 ca         1 EHP      -0.170000
     13 OH          -1.6660     0.3780    -3.6570 oh         1 EHP      -0.551100
     14 HN1          1.1340     1.4530     0.4880 hn         1 EHP       0.379500
     15 HN2          1.7220     1.0630     1.9420 hn         1 EHP       0.379500
     16 HA          -1.1210     0.7890     1.2050 h1         1 EHP       0.045700
     17 HB1          1.0300    -1.3780     1.1770 hc         1 EHP       0.056200
     18 HB2         -0.6740    -1.6200     0.8740 hc         1 EHP       0.056200
     19 HD1          2.4790    -0.8910    -0.6860 ha         1 EHP       0.113000
     20 HD2         -1.7660    -0.1970    -1.0770 ha         1 EHP       0.119000
     21 HE1          2.7870    -0.3830    -3.0990 ha         1 EHP       0.098000
     22 HZ           0.8210     0.2200    -4.5070 ha         1 EHP       0.111000
     23 HOH         -2.4700     0.3650    -3.0940 ho         1 EHP       0.460000
@<TRIPOS>BOND
     1     1     2 1   
     2     1    14 1   
     3     1    15 1   
     4     2     3 1   
     5     2     6 1   
     6     2    16 1   
     7     3     4 1   
     8     3     5 1   
     9     6     7 1   
    10     6    17 1   
    11     6    18 1   
    12     7     8 ar  
    13     7     9 ar  
    14     8    10 ar  
    15     8    19 1   
    16     9    11 ar  
    17     9    20 1   
    18    10    12 ar  
    19    10    21 1   
    20    11    12 ar  
    21    11    13 1   
    22    12    22 1   
    23    13    23 1   
@<TRIPOS>SUBSTRUCTURE
     1 EHP         1 TEMP              0 ****  ****    0 ROOT
