@<TRIPOS>MOLECULE
EHQ
   30    32     1     0     0
SMALL
No Charge or Current Charge


@<TRIPOS>ATOM
      1 C5          -5.8360     7.1680   -21.8520 cc         1 EHQ       0.231300
      2 C8          -3.9410     8.2510   -22.2830 cd         1 EHQ       0.309300
      3 C10         -3.0440     6.9490   -18.0720 cc         1 EHQ      -0.141000
      4 N12         -1.5580    11.7580   -19.2830 nb         1 EHQ      -0.665000
      5 C13         -7.0300     6.4030   -21.3480 c3         1 EHQ      -0.139400
      6 C15         -0.9250    10.7370   -18.6620 ca         1 EHQ       0.332900
      7 C17         -1.4550     9.4390   -18.5890 ca         1 EHQ      -0.162500
      8 N9          -3.9480     5.9110   -18.2640 na         1 EHQ      -0.008200
      9 C18         -3.3560    10.2270   -19.8230 ca         1 EHQ      -0.162500
     10 C11         -2.6870     9.1550   -19.2060 ca         1 EHQ       0.048000
     11 C1          -4.2450     7.1600   -19.9500 cd         1 EHQ       0.360500
     12 C14         -2.4870     8.6480   -22.3250 c3         1 EHQ      -0.137400
     13 C2          -4.6560     7.5510   -21.2800 cd         1 EHQ      -0.274500
     14 C16         -2.7590    11.4980   -19.8460 ca         1 EHQ       0.332900
     15 N7          -4.7050     6.0450   -19.4110 nc         1 EHQ      -0.510800
     16 C3          -3.3020     7.8180   -19.0990 cd         1 EHQ      -0.159000
     17 N4          -4.6490     8.3760   -23.3920 nc         1 EHQ      -0.363300
     18 O6          -5.8920     7.7010   -23.1160 os         1 EHQ      -0.098700
     19 H1          -2.3950     7.0160   -17.2070 h4         1 EHQ       0.160000
     20 H2          -7.8820     6.5130   -22.0280 hc         1 EHQ       0.066700
     21 H3          -6.8000     5.3350   -21.2650 hc         1 EHQ       0.066700
     22 H4          -7.3380     6.7680   -20.3610 hc         1 EHQ       0.066700
     23 H6          -0.8950     8.6660   -18.0710 ha         1 EHQ       0.124000
     24 H7          -4.0770     5.1130   -17.6410 hn         1 EHQ       0.378000
     25 H8          -4.3410    10.0980   -20.2610 ha         1 EHQ       0.124000
     26 H9          -2.0360     8.3530   -23.2800 hc         1 EHQ       0.060700
     27 H10         -2.3620     9.7310   -22.2330 hc         1 EHQ       0.060700
     28 H11         -1.9060     8.1520   -21.5410 hc         1 EHQ       0.060700
     29 H12         -3.2630    12.3380   -20.3230 h4         1 EHQ       0.019600
     30 H5           0.0360    10.9690   -18.2040 h4         1 EHQ       0.019600
@<TRIPOS>BOND
     1     1     5 1   
     2     1    13 2   
     3     1    18 1   
     4     2    12 1   
     5     2    13 1   
     6     2    17 2   
     7     3     8 1   
     8     3    16 2   
     9     3    19 1   
    10     4     6 ar  
    11     4    14 ar  
    12     5    20 1   
    13     5    21 1   
    14     5    22 1   
    15     6     7 ar  
    16     6    30 1   
    17     7    10 ar  
    18     7    23 1   
    19     8    15 1   
    20     8    24 1   
    21     9    10 ar  
    22     9    14 ar  
    23     9    25 1   
    24    10    16 1   
    25    11    13 1   
    26    11    15 2   
    27    11    16 1   
    28    12    26 1   
    29    12    27 1   
    30    12    28 1   
    31    14    29 1   
    32    17    18 1   
@<TRIPOS>SUBSTRUCTURE
     1 EHQ         1 TEMP              0 ****  ****    0 ROOT
