@<TRIPOS>MOLECULE
EHQ
   30    32     1     0     0
SMALL
abcg2


@<TRIPOS>ATOM
      1 C5          -5.7480     7.3540   -21.8110 cc         1 EHQ       0.231300
      2 C8          -3.6950     7.9100   -22.4050 cd         1 EHQ       0.309300
      3 C10         -3.0630     6.9400   -17.9820 cc         1 EHQ      -0.141000
      4 N12         -1.9990    11.8780   -19.3150 nb         1 EHQ      -0.665000
      5 C13         -7.0450     6.9450   -21.2290 c3         1 EHQ      -0.139400
      6 C15         -1.2760    10.9560   -18.6690 ca         1 EHQ       0.332900
      7 C17         -1.6480     9.6250   -18.5590 ca         1 EHQ      -0.162500
      8 N9          -3.6600     5.7780   -18.2980 na         1 EHQ      -0.008200
      9 C18         -3.6050    10.1590   -19.8080 ca         1 EHQ      -0.162500
     10 C11         -2.8430     9.1930   -19.1430 ca         1 EHQ       0.048000
     11 C1          -4.0150     7.0240   -19.9860 cd         1 EHQ       0.360500
     12 C14         -2.2260     8.1530   -22.4430 c3         1 EHQ      -0.137400
     13 C2          -4.4790     7.4070   -21.3170 cd         1 EHQ      -0.274500
     14 C16         -3.1440    11.4660   -19.8690 ca         1 EHQ       0.332900
     15 N7          -4.2370     5.7950   -19.5140 nc         1 EHQ      -0.510800
     16 C3          -3.2710     7.7990   -19.0510 cd         1 EHQ      -0.159000
     17 N4          -4.4380     8.1400   -23.4570 nc         1 EHQ      -0.363300
     18 O6          -5.7500     7.7910   -23.0850 os         1 EHQ      -0.098700
     19 H1          -2.5690     7.0890   -17.0370 h4         1 EHQ       0.160000
     20 H2          -7.7930     7.7260   -21.3780 hc         1 EHQ       0.066700
     21 H3          -7.4120     6.0320   -21.7040 hc         1 EHQ       0.066700
     22 H4          -6.9290     6.7570   -20.1640 hc         1 EHQ       0.066700
     23 H6          -1.0030     8.9280   -18.0400 ha         1 EHQ       0.124000
     24 H7          -3.7090     4.9440   -17.7340 hn         1 EHQ       0.378000
     25 H8          -4.5480     9.9020   -20.2680 ha         1 EHQ       0.124000
     26 H9          -1.9010     8.3540   -23.4630 hc         1 EHQ       0.060700
     27 H10         -1.9590     9.0040   -21.8160 hc         1 EHQ       0.060700
     28 H11         -1.6900     7.2820   -22.0620 hc         1 EHQ       0.060700
     29 H12         -3.7290    12.2190   -20.3860 h4         1 EHQ       0.019600
     30 H5          -0.3480    11.2960   -18.2220 h4         1 EHQ       0.019600
@<TRIPOS>BOND
     1     1     5 1   
     2     1    13 2   
     3     1    18 1   
     4     2    12 1   
     5     2    13 1   
     6     2    17 2   
     7     3     8 1   
     8     3    16 2   
     9     3    19 1   
    10     4     6 ar  
    11     4    14 ar  
    12     5    20 1   
    13     5    21 1   
    14     5    22 1   
    15     6     7 ar  
    16     6    30 1   
    17     7    10 ar  
    18     7    23 1   
    19     8    15 1   
    20     8    24 1   
    21     9    10 ar  
    22     9    14 ar  
    23     9    25 1   
    24    10    16 1   
    25    11    13 1   
    26    11    15 2   
    27    11    16 1   
    28    12    26 1   
    29    12    27 1   
    30    12    28 1   
    31    14    29 1   
    32    17    18 1   
@<TRIPOS>SUBSTRUCTURE
     1 EHQ         1 TEMP              0 ****  ****    0 ROOT
