@<TRIPOS>MOLECULE
EHR
   36    38     1     0     0
SMALL
abcg2


@<TRIPOS>ATOM
      1 C4           7.1480    -9.0850   -16.5180 ca         1 EHR      -0.095000
      2 C14          3.0110    -5.7290   -19.8570 cp         1 EHR      -0.014000
      3 C5           7.3830    -8.4200   -15.3200 ca         1 EHR      -0.190000
      4 C6           6.9180    -7.1230   -15.1790 ca         1 EHR      -0.053000
      5 C11          6.3230    -7.5590   -21.8360 ca         1 EHR      -0.082000
      6 C7           5.3120    -6.7630   -19.7820 ca         1 EHR       0.371000
      7 C8           4.1760    -6.3640   -20.5160 cp         1 EHR      -0.107000
      8 C9           4.1540    -6.5600   -21.8950 ca         1 EHR      -0.073000
      9 C10          5.2080    -7.1640   -22.5620 ca         1 EHR      -0.183000
     10 C12          6.3800    -7.3510   -20.4680 ca         1 EHR      -0.185000
     11 C3           6.4830    -8.4540   -17.5530 ca         1 EHR      -0.215000
     12 C1           6.2430    -6.4540   -16.1970 ca         1 EHR      -0.203600
     13 C15          2.5330    -4.5000   -20.3090 ca         1 EHR      -0.087000
     14 C16          1.4210    -3.9090   -19.7230 ca         1 EHR      -0.112500
     15 C17          0.7700    -4.5400   -18.6730 ca         1 EHR      -0.113000
     16 C18          1.2360    -5.7670   -18.2160 ca         1 EHR      -0.112500
     17 C19          2.3460    -6.3560   -18.8020 ca         1 EHR      -0.087000
     18 C2           6.0380    -7.1280   -17.4270 ca         1 EHR       0.341000
     19 O1           6.0820    -4.5110   -14.8590 o          1 EHR      -0.709500
     20 O2           4.9780    -4.5240   -16.7850 o          1 EHR      -0.709500
     21 H1           7.4760   -10.1080   -16.6490 ha         1 EHR       0.081000
     22 H2           7.9070    -8.9090   -14.5100 ha         1 EHR       0.089000
     23 H3           7.0780    -6.5980   -14.2470 ha         1 EHR       0.127000
     24 H4           7.1670    -8.0180   -22.3370 ha         1 EHR       0.094000
     25 H5           3.2750    -6.2520   -22.4490 ha         1 EHR       0.099000
     26 H6           5.1600    -7.3210   -23.6320 ha         1 EHR       0.096000
     27 H7           7.2800    -7.6210   -19.9320 ha         1 EHR       0.122000
     28 H8           4.9490    -5.6020   -18.0800 hn         1 EHR       0.577000
     29 H9           6.2870    -9.0050   -18.4630 ha         1 EHR       0.098000
     30 H10          3.0410    -3.9950   -21.1220 ha         1 EHR       0.112500
     31 H11          1.0670    -2.9520   -20.0860 ha         1 EHR       0.100500
     32 H12         -0.0960    -4.0810   -18.2130 ha         1 EHR       0.097000
     33 H13          0.7290    -6.2710   -17.4030 ha         1 EHR       0.100500
     34 H14          2.6920    -7.3160   -18.4430 ha         1 EHR       0.112500
     35 C13          5.7330    -5.0450   -15.9220 c          1 EHR       0.720600
     36 N1           5.3580    -6.4810   -18.4290 nu         1 EHR      -1.008000
@<TRIPOS>BOND
     1     1     3 ar  
     2     1    11 ar  
     3     1    21 1   
     4     2     7 1   
     5     2    13 ar  
     6     2    17 ar  
     7     3     4 ar  
     8     3    22 1   
     9     4    12 ar  
    10     4    23 1   
    11     5     9 ar  
    12     5    10 ar  
    13     5    24 1   
    14     6     7 ar  
    15     6    10 ar  
    16     6    36 1   
    17     7     8 ar  
    18     8     9 ar  
    19     8    25 1   
    20     9    26 1   
    21    10    27 1   
    22    11    18 ar  
    23    11    29 1   
    24    12    18 ar  
    25    12    35 1   
    26    13    14 ar  
    27    13    30 1   
    28    14    15 ar  
    29    14    31 1   
    30    15    16 ar  
    31    15    32 1   
    32    16    17 ar  
    33    16    33 1   
    34    17    34 1   
    35    18    36 1   
    36    19    35 1   
    37    20    35 1   
    38    28    36 1   
@<TRIPOS>SUBSTRUCTURE
     1 EHR         1 TEMP              0 ****  ****    0 ROOT
