@<TRIPOS>MOLECULE
EHR
   36    38     1     0     0
SMALL
No Charge or Current Charge


@<TRIPOS>ATOM
      1 C4           7.2060    -9.1430   -16.4270 ca         1 EHR      -0.095000
      2 C14          2.9800    -5.7020   -19.8800 cp         1 EHR      -0.014000
      3 C5           7.4360    -8.4290   -15.2450 ca         1 EHR      -0.190000
      4 C6           6.9620    -7.1140   -15.1120 ca         1 EHR      -0.053000
      5 C11          6.3720    -7.5130   -21.8800 ca         1 EHR      -0.082000
      6 C7           5.2940    -6.8040   -19.8030 ca         1 EHR       0.371000
      7 C8           4.1670    -6.3350   -20.5380 cp         1 EHR      -0.107000
      8 C9           4.1770    -6.4780   -21.9480 ca         1 EHR      -0.073000
      9 C10          5.2640    -7.0670   -22.6120 ca         1 EHR      -0.183000
     10 C12          6.3880    -7.3730   -20.4840 ca         1 EHR      -0.185000
     11 C3           6.5110    -8.5330   -17.4820 ca         1 EHR      -0.215000
     12 C1           6.2550    -6.4910   -16.1680 ca         1 EHR      -0.203600
     13 C15          2.4670    -4.4690   -20.3540 ca         1 EHR      -0.087000
     14 C16          1.3430    -3.8730   -19.7560 ca         1 EHR      -0.112500
     15 C17          0.7050    -4.5030   -18.6760 ca         1 EHR      -0.113000
     16 C18          1.1900    -5.7310   -18.1960 ca         1 EHR      -0.112500
     17 C19          2.3140    -6.3260   -18.7950 ca         1 EHR      -0.087000
     18 C2           6.0510    -7.2070   -17.3700 ca         1 EHR       0.341000
     19 O1           6.3670    -4.3420   -15.2280 o          1 EHR      -0.709500
     20 O2           4.7320    -4.7310   -16.5690 o          1 EHR      -0.709500
     21 H1           7.5590   -10.1670   -16.5250 ha         1 EHR       0.081000
     22 H2           7.9740    -8.8970   -14.4230 ha         1 EHR       0.089000
     23 H3           7.1370    -6.5800   -14.1800 ha         1 EHR       0.127000
     24 H4           7.2230    -7.9550   -22.3940 ha         1 EHR       0.094000
     25 H5           3.3240    -6.1350   -22.5310 ha         1 EHR       0.099000
     26 H6           5.2490    -7.1700   -23.6940 ha         1 EHR       0.096000
     27 H7           7.2700    -7.6870   -19.9350 ha         1 EHR       0.122000
     28 H8           4.7880    -5.8300   -18.0830 hn         1 EHR       0.577000
     29 H9           6.3160    -9.1070   -18.3820 ha         1 EHR       0.098000
     30 H10          2.9530    -3.9700   -21.1890 ha         1 EHR       0.112500
     31 H11          0.9680    -2.9240   -20.1310 ha         1 EHR       0.100500
     32 H12         -0.1650    -4.0430   -18.2130 ha         1 EHR       0.097000
     33 H13          0.6930    -6.2240   -17.3640 ha         1 EHR       0.100500
     34 H14          2.6680    -7.2840   -18.4230 ha         1 EHR       0.112500
     35 C13          5.7500    -5.0790   -15.9850 c          1 EHR       0.720600
     36 N1           5.3550    -6.6210   -18.4200 nu         1 EHR      -1.008000
@<TRIPOS>BOND
     1     1     3 ar  
     2     1    11 ar  
     3     1    21 1   
     4     2     7 1   
     5     2    13 ar  
     6     2    17 ar  
     7     3     4 ar  
     8     3    22 1   
     9     4    12 ar  
    10     4    23 1   
    11     5     9 ar  
    12     5    10 ar  
    13     5    24 1   
    14     6     7 ar  
    15     6    10 ar  
    16     6    36 1   
    17     7     8 ar  
    18     8     9 ar  
    19     8    25 1   
    20     9    26 1   
    21    10    27 1   
    22    11    18 ar  
    23    11    29 1   
    24    12    18 ar  
    25    12    35 1   
    26    13    14 ar  
    27    13    30 1   
    28    14    15 ar  
    29    14    31 1   
    30    15    16 ar  
    31    15    32 1   
    32    16    17 ar  
    33    16    33 1   
    34    17    34 1   
    35    18    36 1   
    36    19    35 1   
    37    20    35 1   
    38    28    36 1   
@<TRIPOS>SUBSTRUCTURE
     1 EHR         1 TEMP              0 ****  ****    0 ROOT
