@<TRIPOS>MOLECULE
EHS
   52    53     1     0     0
SMALL
abcg2


@<TRIPOS>ATOM
      1 O11         -3.3470     4.2940    -1.6650 o          1 EHS      -0.712000
      2 C7          -2.9350     3.1370    -1.5540 c          1 EHS       0.732000
      3 O9          -2.5220     2.3840    -2.4720 o          1 EHS      -0.712000
      4 C22         -2.9330     2.5520    -0.1190 c3         1 EHS      -0.071300
      5 N23         -2.7300     1.1230    -0.2000 ns         1 EHS      -0.446900
      6 C25         -2.8530     0.2730     0.8170 c          1 EHS       0.619700
      7 C27         -2.4550    -1.1410     0.5970 ca         1 EHS      -0.201600
      8 C32         -2.7960    -2.0740     1.5840 ca         1 EHS       0.127100
      9 O37         -3.4590    -1.7590     2.7020 oh         1 EHS      -0.596100
     10 C31         -2.4500    -3.4280     1.4220 ca         1 EHS       0.081100
     11 O36         -2.7870    -4.3390     2.3550 oh         1 EHS      -0.549100
     12 C30         -1.7540    -3.8290     0.3010 ca         1 EHS      -0.109000
     13 C29         -1.3880    -2.8970    -0.6680 ca         1 EHS      -0.145000
     14 C28         -1.7300    -1.5690    -0.5220 ca         1 EHS      -0.072000
     15 O26         -3.2680     0.6450     1.9270 o          1 EHS      -0.682100
     16 C21         -1.8420     3.2610     0.6830 c3         1 EHS       0.166600
     17 O19         -0.5910     3.1310    -0.0110 os         1 EHS      -0.442100
     18 C18          0.2080     2.1030     0.2300 c          1 EHS       0.583100
     19 O20          0.1220     1.3590     1.1690 o          1 EHS      -0.487000
     20 C12          1.3360     2.0320    -0.7970 c3         1 EHS       0.009700
     21 C14          0.8880     2.2990    -2.2400 c3         1 EHS       0.180600
     22 O15         -0.0470     1.3620    -2.7120 oh         1 EHS      -0.726000
     23 N11          1.9630     0.7400    -0.6990 ns         1 EHS      -0.453900
     24 C9           2.9590     0.4690     0.1540 c          1 EHS       0.633700
     25 O10          3.5500     1.3680     0.7670 o          1 EHS      -0.658100
     26 C6           3.3680    -0.9460     0.3120 ca         1 EHS      -0.229600
     27 C1           4.6230    -1.2040     0.8820 ca         1 EHS       0.190100
     28 O8           5.4540    -0.2490     1.3080 oh         1 EHS      -0.541100
     29 C5           2.5380    -2.0160    -0.0500 ca         1 EHS      -0.063000
     30 C4           2.9650    -3.3140     0.1090 ca         1 EHS      -0.131000
     31 C3           4.2320    -3.5730     0.6310 ca         1 EHS      -0.155000
     32 C2           5.0590    -2.5360     1.0160 ca         1 EHS       0.072100
     33 O7           6.2870    -2.7070     1.5420 oh         1 EHS      -0.516100
     34 H22         -3.8910     2.7770     0.3570 h1         1 EHS       0.074700
     35 H23         -2.5180     0.7870    -1.1260 hn         1 EHS       0.349500
     36 H211        -2.0530     4.3280     0.7210 h1         1 EHS       0.069200
     37 H212        -1.7720     2.8860     1.7020 h1         1 EHS       0.069200
     38 H28         -1.3990    -0.8680    -1.2750 ha         1 EHS       0.131000
     39 H36         -3.2690    -3.9160     3.0760 ho         1 EHS       0.480000
     40 H30         -1.4860    -4.8720     0.1880 ha         1 EHS       0.116000
     41 H29         -0.8270    -3.2210    -1.5340 ha         1 EHS       0.110000
     42 H12          2.0690     2.8000    -0.5350 h1         1 EHS       0.097700
     43 H141         0.5210     3.3250    -2.3200 h1         1 EHS       0.047200
     44 H142         1.7850     2.2390    -2.8610 h1         1 EHS       0.047200
     45 HA           1.5000    -0.0160    -1.1780 hn         1 EHS       0.335500
     46 H15         -0.9480     1.7470    -2.6540 ho         1 EHS       0.524000
     47 H5           1.5380    -1.8410    -0.4230 ha         1 EHS       0.125000
     48 H8           4.9560     0.6010     1.2530 ho         1 EHS       0.518000
     49 H4           2.3190    -4.1380    -0.1600 ha         1 EHS       0.116000
     50 H3           4.5680    -4.5970     0.7510 ha         1 EHS       0.106000
     51 H7           6.4980    -3.6460     1.5920 ho         1 EHS       0.451000
     52 H37         -3.5680    -0.7710     2.6890 ho         1 EHS       0.537000
@<TRIPOS>BOND
     1     1     2 1   
     2     2     3 1   
     3     2     4 1   
     4     4     5 1   
     5     4    16 1   
     6     4    34 1   
     7     5     6 1   
     8     5    35 1   
     9     6     7 1   
    10     6    15 2   
    11     7     8 ar  
    12     7    14 ar  
    13     8     9 1   
    14     8    10 ar  
    15     9    52 1   
    16    10    11 1   
    17    10    12 ar  
    18    11    39 1   
    19    12    13 ar  
    20    12    40 1   
    21    13    14 ar  
    22    13    41 1   
    23    14    38 1   
    24    16    17 1   
    25    16    36 1   
    26    16    37 1   
    27    17    18 1   
    28    18    19 2   
    29    18    20 1   
    30    20    21 1   
    31    20    23 1   
    32    20    42 1   
    33    21    22 1   
    34    21    43 1   
    35    21    44 1   
    36    22    46 1   
    37    23    24 1   
    38    23    45 1   
    39    24    25 2   
    40    24    26 1   
    41    26    27 ar  
    42    26    29 ar  
    43    27    28 1   
    44    27    32 ar  
    45    28    48 1   
    46    29    30 ar  
    47    29    47 1   
    48    30    31 ar  
    49    30    49 1   
    50    31    32 ar  
    51    31    50 1   
    52    32    33 1   
    53    33    51 1   
@<TRIPOS>SUBSTRUCTURE
     1 EHS         1 TEMP              0 ****  ****    0 ROOT
