@<TRIPOS>MOLECULE
EHS
   52    53     1     0     0
SMALL
No Charge or Current Charge


@<TRIPOS>ATOM
      1 O11         -3.6830     3.9880    -2.3640 o          1 EHS      -0.712000
      2 C7          -2.8720     3.1700    -1.9560 c          1 EHS       0.732000
      3 O9          -1.9740     2.7030    -2.6480 o          1 EHS      -0.712000
      4 C22         -3.0890     2.5730    -0.5420 c3         1 EHS      -0.071300
      5 N23         -2.7700     1.1180    -0.5260 ns         1 EHS      -0.446900
      6 C25         -3.1250     0.2370     0.4680 c          1 EHS       0.619700
      7 C27         -2.4820    -1.1360     0.4300 ca         1 EHS      -0.201600
      8 C32         -2.8170    -2.1040     1.4070 ca         1 EHS       0.127100
      9 O37         -3.7350    -1.8110     2.3790 oh         1 EHS      -0.596100
     10 C31         -2.2090    -3.3780     1.4000 ca         1 EHS       0.081100
     11 O36         -2.5510    -4.2940     2.3540 oh         1 EHS      -0.549100
     12 C30         -1.2580    -3.7020     0.4230 ca         1 EHS      -0.109000
     13 C29         -0.9120    -2.7520    -0.5500 ca         1 EHS      -0.145000
     14 C28         -1.5150    -1.4820    -0.5500 ca         1 EHS      -0.072000
     15 O26         -3.9140     0.5560     1.3520 o          1 EHS      -0.682100
     16 C21         -2.3020     3.3960     0.5150 c3         1 EHS       0.166600
     17 O19         -0.8890     3.3260     0.2190 os         1 EHS      -0.442100
     18 C18         -0.1560     2.2580     0.6790 c          1 EHS       0.583100
     19 O20         -0.5490     1.4720     1.5330 o          1 EHS      -0.487000
     20 C12          1.2280     2.1430    -0.0070 c3         1 EHS       0.009700
     21 C14          1.1610     2.4410    -1.5320 c3         1 EHS       0.180600
     22 O15          0.3000     1.5100    -2.2090 oh         1 EHS      -0.726000
     23 N11          1.8020     0.8020     0.2760 ns         1 EHS      -0.453900
     24 C9           3.1040     0.4270     0.0560 c          1 EHS       0.633700
     25 O10          3.9430     1.2330    -0.3290 o          1 EHS      -0.658100
     26 C6           3.4510    -1.0240     0.3190 ca         1 EHS      -0.229600
     27 C1           4.7760    -1.4910     0.1240 ca         1 EHS       0.190100
     28 O8           5.7450    -0.6230    -0.2990 oh         1 EHS      -0.541100
     29 C5           2.4670    -1.9500     0.7560 ca         1 EHS      -0.063000
     30 C4           2.7980    -3.2940     0.9890 ca         1 EHS      -0.131000
     31 C3           4.1110    -3.7460     0.7940 ca         1 EHS      -0.155000
     32 C2           5.1030    -2.8520     0.3630 ca         1 EHS       0.072100
     33 O7           6.3800    -3.3200     0.1790 oh         1 EHS      -0.516100
     34 H22         -4.1580     2.6790    -0.3200 h1         1 EHS       0.074700
     35 H23         -2.1510     0.7650    -1.2450 hn         1 EHS       0.349500
     36 H211        -2.6410     4.4390     0.4570 h1         1 EHS       0.069200
     37 H212        -2.5270     3.0400     1.5290 h1         1 EHS       0.069200
     38 H28         -1.2080    -0.7780    -1.3200 ha         1 EHS       0.131000
     39 H36         -3.2220    -3.8530     2.9240 ho         1 EHS       0.480000
     40 H30         -0.7890    -4.6830     0.4210 ha         1 EHS       0.116000
     41 H29         -0.1710    -3.0000    -1.3070 ha         1 EHS       0.110000
     42 H12          1.8660     2.9050     0.4590 h1         1 EHS       0.097700
     43 H141         0.8100     3.4710    -1.6890 h1         1 EHS       0.047200
     44 H142         2.1750     2.3870    -1.9490 h1         1 EHS       0.047200
     45 HA           1.1740     0.0850     0.6130 hn         1 EHS       0.335500
     46 H15         -0.5400     2.0160    -2.4380 ho         1 EHS       0.524000
     47 H5           1.4360    -1.6510     0.9220 ha         1 EHS       0.125000
     48 H8           5.2870     0.2550    -0.4020 ho         1 EHS       0.518000
     49 H4           2.0300    -3.9890     1.3220 ha         1 EHS       0.116000
     50 H3           4.3500    -4.7910     0.9790 ha         1 EHS       0.106000
     51 H7           6.3990    -4.2760     0.3950 ho         1 EHS       0.451000
     52 H37         -3.9990    -0.8610     2.2100 ho         1 EHS       0.537000
@<TRIPOS>BOND
     1     1     2 1   
     2     2     3 1   
     3     2     4 1   
     4     4     5 1   
     5     4    16 1   
     6     4    34 1   
     7     5     6 1   
     8     5    35 1   
     9     6     7 1   
    10     6    15 2   
    11     7     8 ar  
    12     7    14 ar  
    13     8     9 1   
    14     8    10 ar  
    15     9    52 1   
    16    10    11 1   
    17    10    12 ar  
    18    11    39 1   
    19    12    13 ar  
    20    12    40 1   
    21    13    14 ar  
    22    13    41 1   
    23    14    38 1   
    24    16    17 1   
    25    16    36 1   
    26    16    37 1   
    27    17    18 1   
    28    18    19 2   
    29    18    20 1   
    30    20    21 1   
    31    20    23 1   
    32    20    42 1   
    33    21    22 1   
    34    21    43 1   
    35    21    44 1   
    36    22    46 1   
    37    23    24 1   
    38    23    45 1   
    39    24    25 2   
    40    24    26 1   
    41    26    27 ar  
    42    26    29 ar  
    43    27    28 1   
    44    27    32 ar  
    45    28    48 1   
    46    29    30 ar  
    47    29    47 1   
    48    30    31 ar  
    49    30    49 1   
    50    31    32 ar  
    51    31    50 1   
    52    32    33 1   
    53    33    51 1   
@<TRIPOS>SUBSTRUCTURE
     1 EHS         1 TEMP              0 ****  ****    0 ROOT
