@<TRIPOS>MOLECULE
EHT
   33    35     1     0     0
SMALL
No Charge or Current Charge


@<TRIPOS>ATOM
      1 N3          -3.2650     2.2980     0.4260 nb         1 EHT      -0.660000
      2 C4          -3.4470     1.4230    -0.5900 ca         1 EHT       0.333900
      3 C5          -2.6090     0.3160    -0.8040 ca         1 EHT      -0.154000
      4 C6          -1.5180     0.1010     0.0550 ca         1 EHT       0.031000
      5 C7          -0.6530    -1.0650    -0.0990 cc         1 EHT      -0.158000
      6 C8           0.7270    -1.0790     0.0010 cd         1 EHT       0.353500
      7 C10          0.0840    -3.1350     0.1740 cc         1 EHT       0.401400
      8 C13          1.6040     0.0700    -0.0710 cd         1 EHT      -0.259500
      9 C17          1.4280     1.3420    -0.6750 cd         1 EHT       0.296300
     10 C1          -1.3390     1.0020     1.1200 ca         1 EHT      -0.154000
     11 C2          -2.2260     2.0810     1.2650 ca         1 EHT       0.333900
     12 N9           1.1660    -2.3700     0.2090 nd         1 EHT      -0.666000
     13 N11         -1.0560    -2.3800    -0.0120 na         1 EHT      -0.152500
     14 C12         -2.4370    -2.8860    -0.0020 c3         1 EHT       0.056900
     15 C14          2.8820     0.0570     0.4130 cc         1 EHT       0.218300
     16 O15          3.4370     1.2940     0.1960 os         1 EHT      -0.075700
     17 N16          2.4950     2.1070    -0.5270 nc         1 EHT      -0.371300
     18 C18          3.6990    -0.9640     1.1570 c3         1 EHT      -0.136400
     19 C19          0.3310     1.8400    -1.5790 c3         1 EHT      -0.134400
     20 H1          -4.2930     1.6130    -1.2490 h4         1 EHT       0.022100
     21 H2          -2.8050    -0.3560    -1.6340 ha         1 EHT       0.128000
     22 H3           0.0530    -4.2110     0.3010 h5         1 EHT       0.057100
     23 H4          -0.5310     0.8690     1.8330 ha         1 EHT       0.128000
     24 H5          -2.1040     2.7920     2.0810 h4         1 EHT       0.022100
     25 H6          -2.8610    -2.8180    -1.0110 h1         1 EHT       0.057033
     26 H7          -2.4510    -3.9330     0.3250 h1         1 EHT       0.057033
     27 H8          -3.0450    -2.2870     0.6880 h1         1 EHT       0.057033
     28 H9           3.9570    -1.8060     0.5040 hc         1 EHT       0.065367
     29 H10          4.6340    -0.5270     1.5270 hc         1 EHT       0.065367
     30 H11          3.1460    -1.3530     2.0190 hc         1 EHT       0.065367
     31 H12         -0.4080     2.4310    -1.0290 hc         1 EHT       0.057367
     32 H13          0.7370     2.4870    -2.3650 hc         1 EHT       0.057367
     33 H14         -0.1740     1.0120    -2.0880 hc         1 EHT       0.057367
@<TRIPOS>BOND
     1     1     2 ar  
     2     1    11 ar  
     3     2     3 ar  
     4     2    20 1   
     5     3     4 ar  
     6     3    21 1   
     7     4     5 1   
     8     4    10 ar  
     9     5     6 2   
    10     5    13 1   
    11     6     8 1   
    12     6    12 1   
    13     7    12 2   
    14     7    13 1   
    15     7    22 1   
    16     8     9 1   
    17     8    15 2   
    18     9    17 2   
    19     9    19 1   
    20    10    11 ar  
    21    10    23 1   
    22    11    24 1   
    23    13    14 1   
    24    14    25 1   
    25    14    26 1   
    26    14    27 1   
    27    15    16 1   
    28    15    18 1   
    29    16    17 1   
    30    18    28 1   
    31    18    29 1   
    32    18    30 1   
    33    19    31 1   
    34    19    32 1   
    35    19    33 1   
@<TRIPOS>SUBSTRUCTURE
     1 EHT         1 TEMP              0 ****  ****    0 ROOT
