@<TRIPOS>MOLECULE
EHT
   33    35     1     0     0
SMALL
abcg2


@<TRIPOS>ATOM
      1 N3          -3.1660     2.3420     0.6660 nb         1 EHT      -0.660000
      2 C4          -3.5100     1.4110    -0.2160 ca         1 EHT       0.333900
      3 C5          -2.7520     0.2810    -0.4780 ca         1 EHT      -0.154000
      4 C6          -1.5600     0.0890     0.2210 ca         1 EHT       0.031000
      5 C7          -0.6820    -1.0520    -0.0130 cc         1 EHT      -0.158000
      6 C8           0.6890    -1.1010    -0.1490 cd         1 EHT       0.353500
      7 C10          0.0020    -3.1110    -0.2590 cc         1 EHT       0.401400
      8 C13          1.6300     0.0080    -0.1770 cd         1 EHT      -0.259500
      9 C17          1.5810     1.2000    -0.9610 cd         1 EHT       0.296300
     10 C1          -1.2040     1.0630     1.1530 ca         1 EHT      -0.154000
     11 C2          -2.0300     2.1600     1.3310 ca         1 EHT       0.333900
     12 N9           1.0950    -2.3940    -0.3020 nd         1 EHT      -0.666000
     13 N11         -1.1010    -2.3560    -0.0990 na         1 EHT      -0.152500
     14 C12         -2.4490    -2.8660     0.0290 c3         1 EHT       0.056900
     15 C14          2.8080     0.1170     0.4950 cc         1 EHT       0.218300
     16 O15          3.4000     1.2630     0.1570 os         1 EHT      -0.075700
     17 N16          2.6330     1.9350    -0.7520 nc         1 EHT      -0.371300
     18 C18          3.4930    -0.7520     1.4770 c3         1 EHT      -0.136400
     19 C19          0.5280     1.6250    -1.9220 c3         1 EHT      -0.134400
     20 H1          -4.4360     1.5720    -0.7560 h4         1 EHT       0.022100
     21 H2          -3.0840    -0.4150    -1.2350 ha         1 EHT       0.128000
     22 H3          -0.0520    -4.1870    -0.3350 h5         1 EHT       0.057100
     23 H4          -0.3020     0.9680     1.7420 ha         1 EHT       0.128000
     24 H5          -1.7620     2.9250     2.0510 h4         1 EHT       0.022100
     25 H6          -3.0310    -2.6810    -0.8710 h1         1 EHT       0.057033
     26 H7          -2.4000    -3.9380     0.1940 h1         1 EHT       0.057033
     27 H8          -2.9500    -2.4070     0.8780 h1         1 EHT       0.057033
     28 H9           4.4630    -1.0810     1.1030 hc         1 EHT       0.065367
     29 H10          3.6610    -0.2240     2.4170 hc         1 EHT       0.065367
     30 H11          2.8920    -1.6340     1.6790 hc         1 EHT       0.065367
     31 H12         -0.2930     2.1250    -1.4070 hc         1 EHT       0.057367
     32 H13          0.9320     2.3160    -2.6600 hc         1 EHT       0.057367
     33 H14          0.1120     0.7630    -2.4420 hc         1 EHT       0.057367
@<TRIPOS>BOND
     1     1     2 ar  
     2     1    11 ar  
     3     2     3 ar  
     4     2    20 1   
     5     3     4 ar  
     6     3    21 1   
     7     4     5 1   
     8     4    10 ar  
     9     5     6 2   
    10     5    13 1   
    11     6     8 1   
    12     6    12 1   
    13     7    12 2   
    14     7    13 1   
    15     7    22 1   
    16     8     9 1   
    17     8    15 2   
    18     9    17 2   
    19     9    19 1   
    20    10    11 ar  
    21    10    23 1   
    22    11    24 1   
    23    13    14 1   
    24    14    25 1   
    25    14    26 1   
    26    14    27 1   
    27    15    16 1   
    28    15    18 1   
    29    16    17 1   
    30    18    28 1   
    31    18    29 1   
    32    18    30 1   
    33    19    31 1   
    34    19    32 1   
    35    19    33 1   
@<TRIPOS>SUBSTRUCTURE
     1 EHT         1 TEMP              0 ****  ****    0 ROOT
