@<TRIPOS>MOLECULE
EHU
   41    43     1     0     0
SMALL
bcc


@<TRIPOS>ATOM
      1 C4           6.5190    -9.1070   -16.3410 ca         1 EHU      -0.109000
      2 C14          3.5380    -5.8280   -19.6990 cp         1 EHU      -0.036000
      3 C5           6.4170    -8.2560   -17.4270 ca         1 EHU      -0.246000
      4 C6           6.0720    -6.9050   -17.2590 ca         1 EHU       0.208600
      5 C11          4.7470    -6.6380   -21.7430 ca         1 EHU      -0.019600
      6 C7           5.9500    -6.4290   -19.6680 ca         1 EHU       0.158600
      7 C8           7.0840    -6.8880   -20.3270 ca         1 EHU      -0.108000
      8 C9           7.0530    -7.2360   -21.6650 ca         1 EHU      -0.192000
      9 C10          5.8790    -7.1220   -22.4200 ca         1 EHU       0.150600
     10 C12          4.7560    -6.3080   -20.3930 cp         1 EHU      -0.023000
     11 N1           5.9960    -6.0400   -18.3230 nu         1 EHU      -0.679000
     12 N2           5.8260    -7.4920   -23.7350 nu         1 EHU      -0.766600
     13 C3           6.2800    -8.6430   -15.0530 ca         1 EHU      -0.218000
     14 C1           5.7990    -6.4280   -15.9510 ca         1 EHU      -0.208600
     15 C15          7.0220    -7.7770   -24.4860 c3         1 EHU       0.210100
     16 C16          2.9050    -6.6430   -18.7640 ca         1 EHU      -0.092000
     17 C17          1.7920    -6.1870   -18.0710 ca         1 EHU      -0.125500
     18 C18          1.3020    -4.9080   -18.3040 ca         1 EHU      -0.116000
     19 C19          1.9270    -4.0920   -19.2370 ca         1 EHU      -0.125500
     20 C2           5.9230    -7.3150   -14.8850 ca         1 EHU      -0.069000
     21 C20          3.0380    -4.5490   -19.9310 ca         1 EHU      -0.092000
     22 O1           5.2030    -4.6800   -14.4720 o          1 EHU      -0.820800
     23 O2           5.1030    -4.2600   -16.6490 o          1 EHU      -0.820800
     24 H1           6.7860   -10.1430   -16.5080 ha         1 EHU       0.097000
     25 H2           6.6060    -8.6450   -18.4190 ha         1 EHU       0.112000
     26 H3           8.0190    -6.9620   -19.7850 ha         1 EHU       0.143000
     27 H4           7.9630    -7.5880   -22.1330 ha         1 EHU       0.123000
     28 H5           5.5440    -5.1630   -18.0370 hn         1 EHU       0.510800
     29 H6           5.0650    -7.1100   -24.2720 hn         1 EHU       0.419800
     30 H7           6.3640    -9.3040   -14.2010 ha         1 EHU       0.105000
     31 H8           6.7410    -7.9660   -25.5190 h1         1 EHU       0.026367
     32 H9           7.7470    -6.9560   -24.4750 h1         1 EHU       0.026367
     33 H10          7.5230    -8.6720   -24.1130 h1         1 EHU       0.026367
     34 H11          3.2880    -7.6380   -18.5750 ha         1 EHU       0.130500
     35 H12          1.3100    -6.8300   -17.3460 ha         1 EHU       0.121000
     36 H13          0.4370    -4.5500   -17.7600 ha         1 EHU       0.118000
     37 H14          1.5500    -3.0940   -19.4230 ha         1 EHU       0.121000
     38 H15          5.7170    -6.9420   -13.8900 ha         1 EHU       0.143000
     39 H16          3.5270    -3.9050   -20.6520 ha         1 EHU       0.130500
     40 C13          5.3360    -5.0060   -15.6620 c          1 EHU       0.932200
     41 CL1          3.2610    -6.4890   -22.6380 cl         1 EHU      -0.145400
@<TRIPOS>BOND
     1     1     3 ar  
     2     1    13 ar  
     3     1    24 1   
     4     2    10 1   
     5     2    16 ar  
     6     2    21 ar  
     7     3     4 ar  
     8     3    25 1   
     9     4    11 1   
    10     4    14 ar  
    11     5     9 ar  
    12     5    10 ar  
    13     5    41 1   
    14     6     7 ar  
    15     6    10 ar  
    16     6    11 1   
    17     7     8 ar  
    18     7    26 1   
    19     8     9 ar  
    20     8    27 1   
    21     9    12 1   
    22    11    28 1   
    23    12    15 1   
    24    12    29 1   
    25    13    20 ar  
    26    13    30 1   
    27    14    20 ar  
    28    14    40 1   
    29    15    31 1   
    30    15    32 1   
    31    15    33 1   
    32    16    17 ar  
    33    16    34 1   
    34    17    18 ar  
    35    17    35 1   
    36    18    19 ar  
    37    18    36 1   
    38    19    21 ar  
    39    19    37 1   
    40    20    38 1   
    41    21    39 1   
    42    22    40 1   
    43    23    40 1   
@<TRIPOS>SUBSTRUCTURE
     1 EHU         1 TEMP              0 ****  ****    0 ROOT
