@<TRIPOS>MOLECULE
EHU
   41    43     1     0     0
SMALL
No Charge or Current Charge


@<TRIPOS>ATOM
      1 C4           7.1200    -9.1990   -16.0620 ca         1 EHU      -0.091000
      2 C14          3.2820    -5.7170   -19.8370 cp         1 EHU      -0.036000
      3 C5           6.5460    -8.5580   -17.1700 ca         1 EHU      -0.228000
      4 C6           6.0240    -7.2560   -17.0570 ca         1 EHU       0.347000
      5 C11          4.7140    -6.3980   -21.8170 ca         1 EHU       0.072000
      6 C7           5.5800    -6.7570   -19.5540 ca         1 EHU       0.297000
      7 C8           6.7670    -7.2680   -20.1120 ca         1 EHU      -0.090000
      8 C9           6.9280    -7.3620   -21.5040 ca         1 EHU      -0.174000
      9 C10          5.9050    -6.9370   -22.3670 ca         1 EHU       0.289000
     10 C12          4.5400    -6.2930   -20.4090 cp         1 EHU      -0.023000
     11 N1           5.4500    -6.6390   -18.1630 nu         1 EHU      -1.011000
     12 N2           6.0640    -7.0380   -23.7600 nu         1 EHU      -0.960200
     13 C3           7.1640    -8.5410   -14.8270 ca         1 EHU      -0.200000
     14 C1           6.0380    -6.5990   -15.8060 ca         1 EHU      -0.208600
     15 C15          7.1660    -7.6780   -24.4990 c3         1 EHU       0.210100
     16 C16          2.4110    -6.5130   -19.0530 ca         1 EHU      -0.074000
     17 C17          1.2300    -5.9740   -18.5140 ca         1 EHU      -0.107500
     18 C18          0.9000    -4.6290   -18.7480 ca         1 EHU      -0.098000
     19 C19          1.7530    -3.8230   -19.5200 ca         1 EHU      -0.107500
     20 C2           6.6240    -7.2510   -14.6970 ca         1 EHU      -0.051000
     21 C20          2.9340    -4.3630   -20.0580 ca         1 EHU      -0.074000
     22 O1           5.9480    -4.4940   -14.7710 o          1 EHU      -0.715500
     23 O2           4.5000    -4.8800   -16.3130 o          1 EHU      -0.715500
     24 H1           7.5240   -10.2050   -16.1600 ha         1 EHU       0.079000
     25 H2           6.4940    -9.0910   -18.1140 ha         1 EHU       0.094000
     26 H3           7.5850    -7.5760   -19.4670 ha         1 EHU       0.125000
     27 H4           7.8560    -7.7620   -21.9000 ha         1 EHU       0.105000
     28 H5           4.8070    -5.8910   -17.8610 hn         1 EHU       0.566000
     29 H6           5.2690    -6.7020   -24.3110 hn         1 EHU       0.475000
     30 H7           7.6070    -9.0330   -13.9650 ha         1 EHU       0.087000
     31 H8           6.9910    -7.6060   -25.5810 h1         1 EHU       0.026367
     32 H9           8.1200    -7.1860   -24.2690 h1         1 EHU       0.026367
     33 H10          7.2430    -8.7400   -24.2290 h1         1 EHU       0.026367
     34 H11          2.6570    -7.5560   -18.8670 ha         1 EHU       0.112500
     35 H12          0.5710    -6.6000   -17.9160 ha         1 EHU       0.103000
     36 H13         -0.0140    -4.2120   -18.3310 ha         1 EHU       0.100000
     37 H14          1.5000    -2.7810   -19.7000 ha         1 EHU       0.103000
     38 H15          6.6530    -6.7610   -13.7250 ha         1 EHU       0.125000
     39 H16          3.5890    -3.7290   -20.6520 ha         1 EHU       0.112500
     40 C13          5.4570    -5.2160   -15.6270 c          1 EHU       0.721600
     41 Cl1          3.4190    -5.8810   -22.9180 cl         1 EHU      -0.237000
@<TRIPOS>BOND
     1     1     3 ar  
     2     1    13 ar  
     3     1    24 1   
     4     2    10 1   
     5     2    16 ar  
     6     2    21 ar  
     7     3     4 ar  
     8     3    25 1   
     9     4    11 1   
    10     4    14 ar  
    11     5     9 ar  
    12     5    10 ar  
    13     5    41 1   
    14     6     7 ar  
    15     6    10 ar  
    16     6    11 1   
    17     7     8 ar  
    18     7    26 1   
    19     8     9 ar  
    20     8    27 1   
    21     9    12 1   
    22    11    28 1   
    23    12    15 1   
    24    12    29 1   
    25    13    20 ar  
    26    13    30 1   
    27    14    20 ar  
    28    14    40 1   
    29    15    31 1   
    30    15    32 1   
    31    15    33 1   
    32    16    17 ar  
    33    16    34 1   
    34    17    18 ar  
    35    17    35 1   
    36    18    19 ar  
    37    18    36 1   
    38    19    21 ar  
    39    19    37 1   
    40    20    38 1   
    41    21    39 1   
    42    22    40 1   
    43    23    40 1   
@<TRIPOS>SUBSTRUCTURE
     1 EHU         1 TEMP              0 ****  ****    0 ROOT
