@<TRIPOS>MOLECULE
EHV
   26    26     1     0     0
SMALL
bcc


@<TRIPOS>ATOM
      1 C01         -0.6780     3.4040    -0.6110 c3         1 EHV      -0.056800
      2 C02         -1.5420     2.2660    -0.1480 ca         1 EHV      -0.047300
      3 C03         -2.7990     2.5140     0.3950 ca         1 EHV      -0.131000
      4 C04         -3.6060     1.4790     0.8430 ca         1 EHV      -0.133000
      5 C05         -3.1740     0.1660     0.7570 ca         1 EHV      -0.119000
      6 C06         -1.9210    -0.0830     0.2180 ca         1 EHV       0.006100
      7 C08         -1.1000     0.9410    -0.2330 ca         1 EHV      -0.124600
      8 C09          0.2510     0.6370    -0.8270 c          1 EHV       0.589700
      9 C11          1.3870     0.5660     0.1510 c3         1 EHV      -0.161400
     10 C12          2.6740    -0.0100    -0.4160 c3         1 EHV       0.006100
     11 C14          3.8040     0.0620     0.6380 c          1 EHV       0.901600
     12 O10          0.3750     0.5210    -2.0220 o          1 EHV      -0.506100
     13 O13          2.4900    -1.3390    -0.8230 oh         1 EHV      -0.634800
     14 O15          4.3490    -1.0360     0.8930 o          1 EHV      -0.824800
     15 O16          4.0680     1.1720     1.1230 o          1 EHV      -0.824800
     16 BR07        -1.3250    -1.8740     0.0850 br         1 EHV      -0.080100
     17 H1           0.2120     3.5070     0.0120 hc         1 EHV       0.049700
     18 H2          -0.3420     3.2720    -1.6400 hc         1 EHV       0.049700
     19 H3          -1.2200     4.3460    -0.5600 hc         1 EHV       0.049700
     20 H4          -3.1490     3.5360     0.4690 ha         1 EHV       0.123000
     21 H5          -4.5800     1.6950     1.2620 ha         1 EHV       0.122000
     22 H6          -3.8050    -0.6430     1.1010 ha         1 EHV       0.138000
     23 H8           1.5600     1.5910     0.5020 hc         1 EHV       0.069700
     24 H9           1.0630     0.0100     1.0360 hc         1 EHV       0.069700
     25 H10          2.9850     0.6090    -1.2700 h1         1 EHV       0.038700
     26 H12          3.1600    -1.8090    -0.2910 ho         1 EHV       0.432000
@<TRIPOS>BOND
     1     1     2 1   
     2     1    17 1   
     3     1    18 1   
     4     1    19 1   
     5     2     3 ar  
     6     2     7 ar  
     7     3     4 ar  
     8     3    20 1   
     9     4     5 ar  
    10     4    21 1   
    11     5     6 ar  
    12     5    22 1   
    13     6     7 ar  
    14     6    16 1   
    15     7     8 1   
    16     8     9 1   
    17     8    12 2   
    18     9    10 1   
    19     9    23 1   
    20     9    24 1   
    21    10    11 1   
    22    10    13 1   
    23    10    25 1   
    24    11    14 1   
    25    11    15 1   
    26    13    26 1   
@<TRIPOS>SUBSTRUCTURE
     1 EHV         1 TEMP              0 ****  ****    0 ROOT
