@<TRIPOS>MOLECULE
EHV
   26    26     1     0     0
SMALL
No Charge or Current Charge


@<TRIPOS>ATOM
      1 C01         -0.6720     3.4900     0.0450 c3         1 EHV      -0.056800
      2 C02         -1.4670     2.1880     0.1090 ca         1 EHV      -0.047300
      3 C03         -2.7120     2.1920     0.7670 ca         1 EHV      -0.113000
      4 C04         -3.4980     1.0310     0.8210 ca         1 EHV      -0.115000
      5 C05         -3.0470    -0.1470     0.2100 ca         1 EHV      -0.101000
      6 C06         -1.8060    -0.1690    -0.4480 ca         1 EHV       0.006100
      7 C08         -0.9980     0.9910    -0.4950 ca         1 EHV      -0.124600
      8 C09          0.3340     0.9490    -1.1990 c          1 EHV       0.589700
      9 C11          1.6100     1.1220    -0.3670 c3         1 EHV      -0.161400
     10 C12          2.3660    -0.2160    -0.1830 c3         1 EHV       0.029300
     11 C14          3.8330     0.0040     0.3430 c          1 EHV       0.691000
     12 O10          0.3940     0.8290    -2.4180 o          1 EHV      -0.506100
     13 O13          1.6010    -1.0670     0.7040 oh         1 EHV      -0.697000
     14 O15          4.0830    -0.3530     1.4880 o          1 EHV      -0.719500
     15 O16          4.6780     0.4340    -0.4300 o          1 EHV      -0.719500
     16 Br07        -1.2440    -1.8150    -1.2610 br         1 EHV      -0.080100
     17 H1           0.0820     3.5330     0.8400 hc         1 EHV       0.049700
     18 H2          -0.1600     3.6100    -0.9180 hc         1 EHV       0.049700
     19 H3          -1.3250     4.3620     0.1670 hc         1 EHV       0.049700
     20 H4          -3.0780     3.1030     1.2360 ha         1 EHV       0.105000
     21 H5          -4.4590     1.0460     1.3310 ha         1 EHV       0.104000
     22 H6          -3.6590    -1.0450     0.2470 ha         1 EHV       0.120000
     23 H8           2.2670     1.8260    -0.8910 hc         1 EHV       0.069700
     24 H9           1.3620     1.5100     0.6270 hc         1 EHV       0.069700
     25 H10          2.4600    -0.6970    -1.1660 h1         1 EHV       0.038700
     26 H12          2.1930    -1.2100     1.4840 ho         1 EHV       0.471000
@<TRIPOS>BOND
     1     1     2 1   
     2     1    17 1   
     3     1    18 1   
     4     1    19 1   
     5     2     3 ar  
     6     2     7 ar  
     7     3     4 ar  
     8     3    20 1   
     9     4     5 ar  
    10     4    21 1   
    11     5     6 ar  
    12     5    22 1   
    13     6     7 ar  
    14     6    16 1   
    15     7     8 1   
    16     8     9 1   
    17     8    12 2   
    18     9    10 1   
    19     9    23 1   
    20     9    24 1   
    21    10    11 1   
    22    10    13 1   
    23    10    25 1   
    24    11    14 1   
    25    11    15 1   
    26    13    26 1   
@<TRIPOS>SUBSTRUCTURE
     1 EHV         1 TEMP              0 ****  ****    0 ROOT
