@<TRIPOS>MOLECULE
EHX
   26    28     1     0     0
SMALL
No Charge or Current Charge


@<TRIPOS>ATOM
      1 C5         -55.9700    56.3030     2.5700 ca         1 EHX      -0.045000
      2 C3         -52.0000    54.4960     4.4710 ce         1 EHX      -0.194000
      3 C2         -51.4140    53.5590     3.6950 c2         1 EHX      -0.186200
      4 N9         -54.3140    53.4410     1.0390 nu         1 EHX      -0.959200
      5 C9A        -53.5500    53.3620     2.3320 c5         1 EHX       0.445400
      6 C8A        -55.2940    54.4340     1.1620 ca         1 EHX       0.297000
      7 C8         -56.3650    54.6550     0.2900 ca         1 EHX      -0.165000
      8 C7         -57.2500    55.7220     0.5610 ca         1 EHX      -0.067000
      9 C6         -57.0500    56.5440     1.6950 ca         1 EHX      -0.154000
     10 C4B        -55.1180    55.2320     2.2710 ca         1 EHX      -0.108800
     11 C4A        -53.9670    54.7280     2.9710 cf         1 EHX      -0.067400
     12 C4         -53.2200    55.1780     4.0210 ce         1 EHX      -0.130000
     13 C1         -52.0010    53.2080     2.3290 c6         1 EHX      -0.049200
     14 O11        -54.1680    52.2830     3.0970 os         1 EHX      -0.242000
     15 H1         -55.8100    56.9220     3.4500 ha         1 EHX       0.115000
     16 H2         -51.5720    54.7890     5.4330 ha         1 EHX       0.183000
     17 H3         -50.5000    53.0440     4.0010 ha         1 EHX       0.183000
     18 H4         -54.9470    50.8100     2.1120 ho         1 EHX       0.438000
     19 H5         -54.5770    52.5950     0.5400 hn         1 EHX       0.481000
     20 H6         -56.5070    54.0250    -0.5840 ha         1 EHX       0.116000
     21 H7         -58.0870    55.9140    -0.1060 ha         1 EHX       0.111000
     22 H8         -57.7350    57.3650     1.8960 ha         1 EHX       0.115000
     23 H10        -53.5030    56.1050     4.5230 ha         1 EHX       0.187000
     24 H12        -51.7110    52.1940     2.0300 hc         1 EHX       0.073200
     25 H9         -51.5800    53.8860     1.5750 hc         1 EHX       0.073200
     26 O1         -54.0230    50.9650     2.4130 oh         1 EHX      -0.452000
@<TRIPOS>BOND
     1     1     9 ar  
     2     1    10 ar  
     3     1    15 1   
     4     2     3 2   
     5     2    12 1   
     6     2    16 1   
     7     3    13 1   
     8     3    17 1   
     9     4     5 1   
    10     4     6 1   
    11     4    19 1   
    12     5    11 1   
    13     5    13 1   
    14     5    14 1   
    15     6     7 ar  
    16     6    10 ar  
    17     7     8 ar  
    18     7    20 1   
    19     8     9 ar  
    20     8    21 1   
    21     9    22 1   
    22    10    11 1   
    23    11    12 2   
    24    12    23 1   
    25    13    24 1   
    26    13    25 1   
    27    14    26 1   
    28    18    26 1   
@<TRIPOS>SUBSTRUCTURE
     1 EHX         1 TEMP              0 ****  ****    0 ROOT
