@<TRIPOS>MOLECULE
EHX
   26    28     1     0     0
SMALL
bcc


@<TRIPOS>ATOM
      1 C5         -56.0150    56.2300     2.5900 ca         1 EHX      -0.063000
      2 C3         -52.0020    54.4510     4.4150 ce         1 EHX      -0.144000
      3 C2         -51.4550    53.5440     3.5970 c2         1 EHX      -0.136200
      4 N9         -54.2450    53.5020     1.0710 nu         1 EHX      -0.765600
      5 C9A        -53.5950    53.3890     2.3470 c5         1 EHX       0.422200
      6 C8A        -55.2740    54.4190     1.1610 ca         1 EHX       0.158600
      7 C8         -56.3040    54.6630     0.2640 ca         1 EHX      -0.183000
      8 C7         -57.1840    55.7030     0.5470 ca         1 EHX      -0.085000
      9 C6         -57.0470    56.4840     1.6920 ca         1 EHX      -0.172000
     10 C4B        -55.1350    55.1930     2.3280 ca         1 EHX      -0.108800
     11 C4A        -53.9710    54.6900     3.0290 cf         1 EHX      -0.067400
     12 C4         -53.2340    55.1390     4.0530 ce         1 EHX      -0.080000
     13 C1         -52.0960    53.1820     2.2910 c6         1 EHX      -0.049200
     14 O11        -54.2260    52.4200     3.1990 os         1 EHX      -0.218800
     15 H1         -55.9120    56.8310     3.4850 ha         1 EHX       0.133000
     16 H2         -51.5050    54.7350     5.3340 ha         1 EHX       0.133000
     17 H3         -50.5040    53.0890     3.8420 ha         1 EHX       0.133000
     18 H4         -54.9330    50.9750     2.2350 ho         1 EHX       0.399000
     19 H5         -54.3210    52.6980     0.4680 hn         1 EHX       0.425800
     20 H6         -56.4170    54.0680    -0.6330 ha         1 EHX       0.134000
     21 H7         -57.9910    55.9080    -0.1440 ha         1 EHX       0.129000
     22 H8         -57.7480    57.2840     1.8850 ha         1 EHX       0.133000
     23 H10        -53.5110    56.0390     4.5880 ha         1 EHX       0.137000
     24 H12        -51.8500    52.1610     1.9950 hc         1 EHX       0.073200
     25 H9         -51.6860    53.8290     1.5050 hc         1 EHX       0.073200
     26 O1         -54.0700    51.1340     2.6420 oh         1 EHX      -0.413000
@<TRIPOS>BOND
     1     1     9 ar  
     2     1    10 ar  
     3     1    15 1   
     4     2     3 2   
     5     2    12 1   
     6     2    16 1   
     7     3    13 1   
     8     3    17 1   
     9     4     5 1   
    10     4     6 1   
    11     4    19 1   
    12     5    11 1   
    13     5    13 1   
    14     5    14 1   
    15     6     7 ar  
    16     6    10 ar  
    17     7     8 ar  
    18     7    20 1   
    19     8     9 ar  
    20     8    21 1   
    21     9    22 1   
    22    10    11 1   
    23    11    12 2   
    24    12    23 1   
    25    13    24 1   
    26    13    25 1   
    27    14    26 1   
    28    18    26 1   
@<TRIPOS>SUBSTRUCTURE
     1 EHX         1 TEMP              0 ****  ****    0 ROOT
