@<TRIPOS>MOLECULE
EHY
   33    34     1     0     0
SMALL
No Charge or Current Charge


@<TRIPOS>ATOM
      1 CAB          6.5750    -0.4610    -0.1750 ca         1 EHY      -0.104000
      2 CAC          5.9210     0.1520    -1.2580 ca         1 EHY      -0.107000
      3 CAD          5.9220    -0.5770     1.0630 ca         1 EHY      -0.107000
      4 CAE         -5.4580    -1.1700     0.3990 ca         1 EHY      -0.148000
      5 CAF         -6.2880    -0.0780     0.0970 ca         1 EHY       0.327900
      6 CAG          4.6150     0.6490    -1.1010 ca         1 EHY      -0.101500
      7 CAH          4.6170    -0.0790     1.2200 ca         1 EHY      -0.101500
      8 CAI         -4.0630    -0.9930     0.4160 ca         1 EHY      -0.051000
      9 CAJ         -4.4600     1.3230    -0.1560 ca         1 EHY       0.309900
     10 CAK          1.4820     0.0040    -0.0310 c3         1 EHY       0.109000
     11 CAP         -1.0260    -0.2030    -0.0660 cs         1 EHY       0.472400
     12 CAQ          3.9570     0.5380     0.1400 ca         1 EHY      -0.087300
     13 CAR         -3.5400     0.2830     0.1190 ca         1 EHY       0.009600
     14 NAM         -5.8050     1.1560    -0.1740 nb         1 EHY      -0.652000
     15 NAN          0.1180     0.5140     0.1300 ns         1 EHY      -0.448900
     16 NAO         -2.1440     0.5660     0.1290 ns         1 EHY      -0.371100
     17 SAA         -1.0190    -1.7970    -0.5730 s          1 EHY      -0.641400
     18 H1           7.5850    -0.8460    -0.2970 ha         1 EHY       0.115000
     19 H2           6.4250     0.2410    -2.2180 ha         1 EHY       0.115000
     20 H3           6.4270    -1.0520     1.9020 ha         1 EHY       0.115000
     21 H5          -7.3710    -0.1920     0.0790 h4         1 EHY       0.023100
     22 H6           4.1160     1.1210    -1.9450 ha         1 EHY       0.111500
     23 H7           4.1180    -0.1750     2.1830 ha         1 EHY       0.111500
     24 H8          -3.4190    -1.8270     0.6770 ha         1 EHY       0.146000
     25 H9          -4.1030     2.3290    -0.3760 h4         1 EHY       0.014100
     26 H10          1.6180    -0.3280    -1.0700 h1         1 EHY       0.076200
     27 H11          1.6180    -0.8650     0.6260 h1         1 EHY       0.076200
     28 H14          0.0190     1.4800     0.4200 hn         1 EHY       0.301500
     29 H15         -1.9400     1.5360     0.3370 hn         1 EHY       0.307500
     30 CAL          2.5400     1.0710     0.3070 c3         1 EHY      -0.049100
     31 H4          -5.8960    -2.1380     0.6230 ha         1 EHY       0.129000
     32 H12          2.3880     1.9460    -0.3370 hc         1 EHY       0.049700
     33 H13          2.3860     1.4150     1.3380 hc         1 EHY       0.049700
@<TRIPOS>BOND
     1     1     2 ar  
     2     1     3 ar  
     3     1    18 1   
     4     2     6 ar  
     5     2    19 1   
     6     3     7 ar  
     7     3    20 1   
     8     4     5 ar  
     9     4     8 ar  
    10     4    31 1   
    11     5    14 ar  
    12     5    21 1   
    13     6    12 ar  
    14     6    22 1   
    15     7    12 ar  
    16     7    23 1   
    17     8    13 ar  
    18     8    24 1   
    19     9    13 ar  
    20     9    14 ar  
    21     9    25 1   
    22    10    15 1   
    23    10    26 1   
    24    10    27 1   
    25    10    30 1   
    26    11    15 1   
    27    11    16 1   
    28    11    17 2   
    29    12    30 1   
    30    13    16 1   
    31    15    28 1   
    32    16    29 1   
    33    30    32 1   
    34    30    33 1   
@<TRIPOS>SUBSTRUCTURE
     1 EHY         1 TEMP              0 ****  ****    0 ROOT
