@<TRIPOS>MOLECULE
EHY
   33    34     1     0     0
SMALL
bcc


@<TRIPOS>ATOM
      1 CAB          6.4060    -0.5800    -0.3180 ca         1 EHY      -0.122000
      2 CAC          5.7610     0.1780    -1.2870 ca         1 EHY      -0.125000
      3 CAD          5.7950    -0.7830     0.9130 ca         1 EHY      -0.125000
      4 CAE         -5.2720    -1.1680     0.5510 ca         1 EHY      -0.231300
      5 CAF         -6.0970    -0.2770    -0.1200 ca         1 EHY       0.393200
      6 CAG          4.5130     0.7270    -1.0250 ca         1 EHY      -0.119500
      7 CAH          4.5470    -0.2320     1.1710 ca         1 EHY      -0.119500
      8 CAI         -3.9290    -0.8630     0.6980 ca         1 EHY      -0.069000
      9 CAJ         -4.3680     1.1490    -0.5060 ca         1 EHY       0.375200
     10 CAK          1.4470     0.1090    -0.0050 c3         1 EHY       0.109000
     11 CAP         -1.0110     0.0160     0.0160 cs         1 EHY       0.606400
     12 CAQ          3.8910     0.5290     0.2060 ca         1 EHY      -0.087300
     13 CAR         -3.4560     0.3210     0.1430 ca         1 EHY      -0.055700
     14 NAM         -5.6570     0.8660    -0.6300 nb         1 EHY      -0.652000
     15 NAN          0.1320     0.6620     0.2440 ns         1 EHY      -0.515900
     16 NAO         -2.1290     0.7480     0.2670 ns         1 EHY      -0.438100
     17 SAA         -1.0430    -1.5620    -0.5520 s          1 EHY      -0.641400
     18 H1           7.3800    -1.0060    -0.5200 ha         1 EHY       0.133000
     19 H2           6.2300     0.3440    -2.2480 ha         1 EHY       0.133000
     20 H3           6.2920    -1.3700     1.6740 ha         1 EHY       0.133000
     21 H5          -7.1520    -0.4920    -0.2430 h4         1 EHY       0.023100
     22 H6           4.0160     1.3200    -1.7850 ha         1 EHY       0.129500
     23 H7           4.0790    -0.3920     2.1350 ha         1 EHY       0.129500
     24 H8          -3.2690    -1.5260     1.2380 ha         1 EHY       0.164000
     25 H9          -4.0280     2.0860    -0.9370 h4         1 EHY       0.014100
     26 H10          1.5720    -0.0990    -1.0710 h1         1 EHY       0.076200
     27 H11          1.5480    -0.8440     0.5190 h1         1 EHY       0.076200
     28 H14          0.0930     1.6140     0.5790 hn         1 EHY       0.301500
     29 H15         -2.0060     1.7430     0.3940 hn         1 EHY       0.307500
     30 CAL          2.5190     1.0850     0.4690 c3         1 EHY      -0.049100
     31 H4          -5.6780    -2.0790     0.9670 ha         1 EHY       0.147000
     32 H12          2.3970     2.0410    -0.0460 hc         1 EHY       0.049700
     33 H13          2.3900     1.2750     1.5370 hc         1 EHY       0.049700
@<TRIPOS>BOND
     1     1     2 ar  
     2     1     3 ar  
     3     1    18 1   
     4     2     6 ar  
     5     2    19 1   
     6     3     7 ar  
     7     3    20 1   
     8     4     5 ar  
     9     4     8 ar  
    10     4    31 1   
    11     5    14 ar  
    12     5    21 1   
    13     6    12 ar  
    14     6    22 1   
    15     7    12 ar  
    16     7    23 1   
    17     8    13 ar  
    18     8    24 1   
    19     9    13 ar  
    20     9    14 ar  
    21     9    25 1   
    22    10    15 1   
    23    10    26 1   
    24    10    27 1   
    25    10    30 1   
    26    11    15 1   
    27    11    16 1   
    28    11    17 2   
    29    12    30 1   
    30    13    16 1   
    31    15    28 1   
    32    16    29 1   
    33    30    32 1   
    34    30    33 1   
@<TRIPOS>SUBSTRUCTURE
     1 EHY         1 TEMP              0 ****  ****    0 ROOT
