@<TRIPOS>MOLECULE
EI0
   51    52     1     0     0
SMALL
abcg2


@<TRIPOS>ATOM
      1 C14        -22.4230   -32.9480    21.3970 c          1 EI0       0.595100
      2 C13        -26.0280   -34.0890    21.9930 ca         1 EI0      -0.103000
      3 C12        -26.4030   -35.4020    22.2440 ca         1 EI0      -0.107500
      4 C16        -25.0670   -29.1930    20.3440 c          1 EI0       0.615100
      5 C3         -22.9490   -30.5510    20.9870 c6         1 EI0      -0.050400
      6 C4         -23.5080   -31.8840    21.5240 c6         1 EI0      -0.092000
      7 C7         -24.7290   -32.3590    20.6880 c3         1 EI0      -0.023100
      8 C8         -25.1560   -33.7790    20.9500 ca         1 EI0      -0.091300
      9 C9         -24.6900   -34.8190    20.1470 ca         1 EI0      -0.103000
     10 C10        -25.0640   -36.1330    20.3920 ca         1 EI0      -0.107500
     11 C11        -25.9180   -36.4300    21.4460 ca         1 EI0      -0.104000
     12 C5         -23.8500   -31.7060    23.0080 c6         1 EI0      -0.063400
     13 C6         -24.8120   -30.5430    23.2650 c6         1 EI0      -0.183400
     14 C1         -24.2940   -29.2540    22.6910 c          1 EI0       0.596100
     15 C2         -23.8430   -29.3280    21.2410 c6         1 EI0      -0.237700
     16 C17        -25.7420   -29.3840    17.9940 c3         1 EI0       0.206000
     17 C18        -26.9020   -30.3450    18.2170 c3         1 EI0      -0.108767
     18 C19        -26.2210   -27.9510    17.8040 c3         1 EI0      -0.108767
     19 C20        -24.9220   -29.8290    16.7910 c3         1 EI0      -0.108767
     20 O          -21.9310   -33.0030    20.1670 os         1 EI0      -0.445100
     21 O1         -22.0560   -33.6710    22.2870 o          1 EI0      -0.475000
     22 O4         -24.2100   -28.2320    23.3280 o          1 EI0      -0.497100
     23 O2         -26.1390   -28.8330    20.7650 o          1 EI0      -0.494000
     24 H1         -26.4290   -33.2920    22.6090 ha         1 EI0       0.111500
     25 H2         -27.0810   -35.6200    23.0590 ha         1 EI0       0.113000
     26 H3         -20.6660   -33.8630    18.8520 h1         1 EI0       0.048700
     27 H4         -20.0430   -33.8250    20.5140 h1         1 EI0       0.048700
     28 H5         -21.3060   -34.9920    20.0640 h1         1 EI0       0.048700
     29 H6         -22.7240   -30.6160    19.9240 hc         1 EI0       0.066700
     30 H7         -21.9980   -30.3520    21.4910 hc         1 EI0       0.066700
     31 H8         -25.5740   -31.6990    20.8900 hc         1 EI0       0.060700
     32 H9         -24.4940   -32.2430    19.6280 hc         1 EI0       0.060700
     33 H10        -24.0380   -34.5980    19.3100 ha         1 EI0       0.111500
     34 H11        -24.6920   -36.9250    19.7540 ha         1 EI0       0.113000
     35 H12        -26.2120   -37.4530    21.6370 ha         1 EI0       0.113000
     36 H13        -24.2790   -32.6180    23.4250 hc         1 EI0       0.065200
     37 H14        -22.9270   -31.5210    23.5630 hc         1 EI0       0.065200
     38 H15        -24.9780   -30.4240    24.3360 hc         1 EI0       0.076200
     39 H16        -25.7910   -30.7470    22.8160 hc         1 EI0       0.076200
     40 H17        -23.2400   -28.4360    21.0370 hc         1 EI0       0.098700
     41 H18        -27.5470   -30.0420    19.0390 hc         1 EI0       0.050700
     42 H19        -27.5080   -30.3710    17.3110 hc         1 EI0       0.050700
     43 H20        -26.5450   -31.3590    18.4040 hc         1 EI0       0.050700
     44 H21        -26.8460   -27.6080    18.6260 hc         1 EI0       0.050700
     45 H22        -25.3790   -27.2660    17.6920 hc         1 EI0       0.050700
     46 H23        -26.8140   -27.8960    16.8910 hc         1 EI0       0.050700
     47 H24        -24.0750   -29.1630    16.6200 hc         1 EI0       0.050700
     48 H25        -24.5450   -30.8440    16.9240 hc         1 EI0       0.050700
     49 H26        -25.5450   -29.8170    15.8970 hc         1 EI0       0.050700
     50 O3         -24.7760   -29.4580    19.0910 os         1 EI0      -0.460100
     51 C15        -20.9280   -33.9830    19.8990 c3         1 EI0       0.149900
@<TRIPOS>BOND
     1     1     6 1   
     2     1    20 1   
     3     1    21 2   
     4     2     3 ar  
     5     2     8 ar  
     6     2    24 1   
     7     3    11 ar  
     8     3    25 1   
     9     4    15 1   
    10     4    23 2   
    11     4    50 1   
    12     5     6 1   
    13     5    15 1   
    14     5    29 1   
    15     5    30 1   
    16     6     7 1   
    17     6    12 1   
    18     7     8 1   
    19     7    31 1   
    20     7    32 1   
    21     8     9 ar  
    22     9    10 ar  
    23     9    33 1   
    24    10    11 ar  
    25    10    34 1   
    26    11    35 1   
    27    12    13 1   
    28    12    36 1   
    29    12    37 1   
    30    13    14 1   
    31    13    38 1   
    32    13    39 1   
    33    14    15 1   
    34    14    22 2   
    35    15    40 1   
    36    16    17 1   
    37    16    18 1   
    38    16    19 1   
    39    16    50 1   
    40    17    41 1   
    41    17    42 1   
    42    17    43 1   
    43    18    44 1   
    44    18    45 1   
    45    18    46 1   
    46    19    47 1   
    47    19    48 1   
    48    19    49 1   
    49    20    51 1   
    50    26    51 1   
    51    27    51 1   
    52    28    51 1   
@<TRIPOS>SUBSTRUCTURE
     1 EI0         1 TEMP              0 ****  ****    0 ROOT
