@<TRIPOS>MOLECULE
EI0
   51    52     1     0     0
SMALL
No Charge or Current Charge


@<TRIPOS>ATOM
      1 C14        -22.2850   -33.1200    20.8040 c          1 EI0       0.595100
      2 C13        -25.9820   -34.0170    22.3560 ca         1 EI0      -0.103000
      3 C12        -26.5010   -35.2420    22.8070 ca         1 EI0      -0.107500
      4 C16        -25.1160   -29.3180    20.1190 c          1 EI0       0.615100
      5 C3         -22.9830   -30.7170    20.5250 c6         1 EI0      -0.050400
      6 C4         -23.4150   -32.0890    21.1590 c6         1 EI0      -0.092000
      7 C7         -24.8050   -32.5840    20.5800 c3         1 EI0      -0.023100
      8 C8         -25.3490   -33.9230    21.0980 ca         1 EI0      -0.091300
      9 C9         -25.2880   -35.0740    20.2840 ca         1 EI0      -0.103000
     10 C10        -25.8080   -36.3000    20.7340 ca         1 EI0      -0.107500
     11 C11        -26.4100   -36.3860    21.9990 ca         1 EI0      -0.104000
     12 C5         -23.4420   -31.8470    22.7130 c6         1 EI0      -0.063400
     13 C6         -24.3830   -30.6930    23.1590 c6         1 EI0      -0.183400
     14 C1         -24.1080   -29.3740    22.4290 c          1 EI0       0.596100
     15 C2         -23.8370   -29.4700    20.9340 c6         1 EI0      -0.237700
     16 C17        -25.9350   -29.1840    17.7810 c3         1 EI0       0.206000
     17 C18        -26.8520   -30.4310    17.8770 c3         1 EI0      -0.108767
     18 C19        -26.7020   -27.8480    17.9660 c3         1 EI0      -0.108767
     19 C20        -25.1920   -29.1810    16.4280 c3         1 EI0      -0.108767
     20 O          -21.0730   -32.8380    21.3890 os         1 EI0      -0.445100
     21 O1         -22.4500   -34.0850    20.0710 o          1 EI0      -0.475000
     22 O4         -24.0920   -28.3010    23.0180 o          1 EI0      -0.497100
     23 O2         -26.2170   -29.2470    20.6440 o          1 EI0      -0.494000
     24 H1         -26.0820   -33.1410    22.9890 ha         1 EI0       0.111500
     25 H2         -26.9810   -35.3030    23.7810 ha         1 EI0       0.113000
     26 H3         -19.0690   -33.3740    21.6580 h1         1 EI0       0.048700
     27 H4         -20.1890   -34.7400    21.4700 h1         1 EI0       0.048700
     28 H5         -19.7350   -33.7540    20.0560 h1         1 EI0       0.048700
     29 H6         -22.9380   -30.8130    19.4300 hc         1 EI0       0.066700
     30 H7         -21.9460   -30.5030    20.8220 hc         1 EI0       0.066700
     31 H8         -25.5810   -31.8360    20.7630 hc         1 EI0       0.060700
     32 H9         -24.7310   -32.6300    19.4870 hc         1 EI0       0.060700
     33 H10        -24.8350   -35.0220    19.2960 ha         1 EI0       0.111500
     34 H11        -25.7460   -37.1820    20.1000 ha         1 EI0       0.113000
     35 H12        -26.8140   -37.3350    22.3470 ha         1 EI0       0.113000
     36 H13        -23.7090   -32.7750    23.2370 hc         1 EI0       0.065200
     37 H14        -22.4330   -31.6010    23.0730 hc         1 EI0       0.065200
     38 H15        -24.3630   -30.5300    24.2450 hc         1 EI0       0.076200
     39 H16        -25.4040   -30.9770    22.8830 hc         1 EI0       0.076200
     40 H17        -23.2450   -28.6000    20.6210 hc         1 EI0       0.098700
     41 H18        -27.4800   -30.4130    18.7740 hc         1 EI0       0.050700
     42 H19        -27.5240   -30.4760    17.0120 hc         1 EI0       0.050700
     43 H20        -26.2570   -31.3510    17.8890 hc         1 EI0       0.050700
     44 H21        -27.3570   -27.8680    18.8430 hc         1 EI0       0.050700
     45 H22        -26.0030   -27.0100    18.0740 hc         1 EI0       0.050700
     46 H23        -27.3360   -27.6490    17.0940 hc         1 EI0       0.050700
     47 H24        -24.5060   -28.3280    16.3620 hc         1 EI0       0.050700
     48 H25        -24.6050   -30.1000    16.3040 hc         1 EI0       0.050700
     49 H26        -25.8990   -29.1150    15.5930 hc         1 EI0       0.050700
     50 O3         -24.8790   -29.2810    18.7650 os         1 EI0      -0.460100
     51 C15        -19.9660   -33.7210    21.1290 c3         1 EI0       0.149900
@<TRIPOS>BOND
     1     1     6 1   
     2     1    20 1   
     3     1    21 2   
     4     2     3 ar  
     5     2     8 ar  
     6     2    24 1   
     7     3    11 ar  
     8     3    25 1   
     9     4    15 1   
    10     4    23 2   
    11     4    50 1   
    12     5     6 1   
    13     5    15 1   
    14     5    29 1   
    15     5    30 1   
    16     6     7 1   
    17     6    12 1   
    18     7     8 1   
    19     7    31 1   
    20     7    32 1   
    21     8     9 ar  
    22     9    10 ar  
    23     9    33 1   
    24    10    11 ar  
    25    10    34 1   
    26    11    35 1   
    27    12    13 1   
    28    12    36 1   
    29    12    37 1   
    30    13    14 1   
    31    13    38 1   
    32    13    39 1   
    33    14    15 1   
    34    14    22 2   
    35    15    40 1   
    36    16    17 1   
    37    16    18 1   
    38    16    19 1   
    39    16    50 1   
    40    17    41 1   
    41    17    42 1   
    42    17    43 1   
    43    18    44 1   
    44    18    45 1   
    45    18    46 1   
    46    19    47 1   
    47    19    48 1   
    48    19    49 1   
    49    20    51 1   
    50    26    51 1   
    51    27    51 1   
    52    28    51 1   
@<TRIPOS>SUBSTRUCTURE
     1 EI0         1 TEMP              0 ****  ****    0 ROOT
