@<TRIPOS>MOLECULE
EI1
   33    35     1     0     0
SMALL
No Charge or Current Charge


@<TRIPOS>ATOM
      1 CAA          0.2070    -2.5760     1.8420 c3         1 EI1      -0.087100
      2 CAK          0.0080    -2.2060     0.3600 c3         1 EI1      -0.013200
      3 CAP          0.4770    -0.8080     0.0360 cc         1 EI1      -0.092300
      4 CAR          1.8090    -0.3180    -0.0690 ca         1 EI1      -0.114000
      5 CAJ          3.0410    -0.9640     0.1010 ca         1 EI1      -0.106000
      6 CAN          4.2110    -0.2020    -0.0740 ca         1 EI1       0.105100
      7 OAC          5.4310    -0.7920     0.0830 oh         1 EI1      -0.541100
      8 CAH          4.1250     1.1680    -0.4100 ca         1 EI1      -0.168000
      9 CAI          2.8660     1.7860    -0.5760 ca         1 EI1      -0.044000
     10 CAQ          1.7030     1.0180    -0.4000 ca         1 EI1      -0.089000
     11 NAL          0.3820     1.4640    -0.5250 nc         1 EI1      -0.270400
     12 NAS         -0.3210     0.2940    -0.2500 na         1 EI1       0.247700
     13 CAO         -1.7140     0.2990    -0.2300 ca         1 EI1      -0.046200
     14 CAF         -2.4100     0.1290     0.9830 ca         1 EI1      -0.053000
     15 CAD         -3.8160     0.1300     0.9960 ca         1 EI1      -0.174000
     16 CAM         -4.5310     0.3040    -0.1980 ca         1 EI1       0.151100
     17 OAB         -5.8930     0.3040    -0.1720 oh         1 EI1      -0.528100
     18 CAE         -3.8440     0.4790    -1.4100 ca         1 EI1      -0.174000
     19 CAG         -2.4370     0.4780    -1.4270 ca         1 EI1      -0.053000
     20 HAA1        -0.3550    -1.8950     2.4910 hc         1 EI1       0.038367
     21 HAA2        -0.1410    -3.5980     2.0320 hc         1 EI1       0.038367
     22 HAA3         1.2670    -2.5180     2.1180 hc         1 EI1       0.038367
     23 HAK1         0.5580    -2.9240    -0.2590 hc         1 EI1       0.057200
     24 HAK2        -1.0510    -2.3300     0.1000 hc         1 EI1       0.057200
     25 HAJ          3.0940    -2.0190     0.3580 ha         1 EI1       0.129000
     26 HOAC         6.1260    -0.1170    -0.0760 ho         1 EI1       0.461000
     27 HAH          5.0280     1.7580    -0.5460 ha         1 EI1       0.109000
     28 HAI          2.7970     2.8400    -0.8360 ha         1 EI1       0.126000
     29 HAF         -1.8620    -0.0010     1.9140 ha         1 EI1       0.134000
     30 HAD         -4.3500    -0.0020     1.9340 ha         1 EI1       0.127500
     31 HOAB        -6.2220     0.4380    -1.0870 ho         1 EI1       0.470000
     32 HAE         -4.3900     0.6160    -2.3400 ha         1 EI1       0.127500
     33 HAG         -1.9070     0.6130    -2.3680 ha         1 EI1       0.134000
@<TRIPOS>BOND
     1     1     2 1   
     2     1    20 1   
     3     1    21 1   
     4     1    22 1   
     5     2     3 1   
     6     2    23 1   
     7     2    24 1   
     8     3     4 2   
     9     3    12 1   
    10     4     5 ar  
    11     4    10 ar  
    12     5     6 ar  
    13     5    25 1   
    14     6     7 1   
    15     6     8 ar  
    16     7    26 1   
    17     8     9 ar  
    18     8    27 1   
    19     9    10 ar  
    20     9    28 1   
    21    10    11 2   
    22    11    12 1   
    23    12    13 1   
    24    13    14 ar  
    25    13    19 ar  
    26    14    15 ar  
    27    14    29 1   
    28    15    16 ar  
    29    15    30 1   
    30    16    17 1   
    31    16    18 ar  
    32    17    31 1   
    33    18    19 ar  
    34    18    32 1   
    35    19    33 1   
@<TRIPOS>SUBSTRUCTURE
     1 EI1         1 TEMP              0 ****  ****    0 ROOT
