@<TRIPOS>MOLECULE
EI1
   33    35     1     0     0
SMALL
abcg2


@<TRIPOS>ATOM
      1 CAA          0.1760    -2.5020     1.9900 c3         1 EI1      -0.087100
      2 CAK          0.0280    -2.2100     0.4970 c3         1 EI1      -0.013200
      3 CAP          0.4970    -0.8490     0.1170 cc         1 EI1      -0.092300
      4 CAR          1.8010    -0.3810    -0.0340 ca         1 EI1      -0.114000
      5 CAJ          3.0770    -0.9660     0.1250 ca         1 EI1      -0.106000
      6 CAN          4.1700    -0.1840    -0.1340 ca         1 EI1       0.105100
      7 OAC          5.4040    -0.7220     0.0110 oh         1 EI1      -0.541100
      8 CAH          4.0240     1.1750    -0.5500 ca         1 EI1      -0.168000
      9 CAI          2.7990     1.7530    -0.7100 ca         1 EI1      -0.044000
     10 CAQ          1.6530     0.9660    -0.4500 ca         1 EI1      -0.089000
     11 NAL          0.3680     1.3100    -0.5430 nc         1 EI1      -0.270400
     12 NAS         -0.2920     0.2050    -0.1930 na         1 EI1       0.247700
     13 CAO         -1.7080     0.2340    -0.2130 ca         1 EI1      -0.046200
     14 CAF         -2.4420    -0.1490     0.9020 ca         1 EI1      -0.053000
     15 CAD         -3.8250    -0.1190     0.8700 ca         1 EI1      -0.174000
     16 CAM         -4.4890     0.3150    -0.2760 ca         1 EI1       0.151100
     17 OAB         -5.8320     0.3330    -0.2550 oh         1 EI1      -0.528100
     18 CAE         -3.7480     0.7140    -1.3870 ca         1 EI1      -0.174000
     19 CAG         -2.3650     0.6700    -1.3550 ca         1 EI1      -0.053000
     20 HAA1        -0.4330    -1.8280     2.5940 hc         1 EI1       0.038367
     21 HAA2        -0.1370    -3.5220     2.2110 hc         1 EI1       0.038367
     22 HAA3         1.2110    -2.3910     2.3130 hc         1 EI1       0.038367
     23 HAK1         0.6170    -2.9370    -0.0670 hc         1 EI1       0.057200
     24 HAK2        -1.0080    -2.3570     0.1870 hc         1 EI1       0.057200
     25 HAJ          3.1950    -1.9960     0.4410 ha         1 EI1       0.129000
     26 HOAC         6.0820    -0.0650    -0.1770 ho         1 EI1       0.461000
     27 HAH          4.9170     1.7590    -0.7440 ha         1 EI1       0.109000
     28 HAI          2.7080     2.7840    -1.0270 ha         1 EI1       0.126000
     29 HAF         -1.9420    -0.4610     1.8090 ha         1 EI1       0.134000
     30 HAD         -4.3930    -0.4190     1.7420 ha         1 EI1       0.127500
     31 HOAB        -6.1810     0.6580    -1.0920 ho         1 EI1       0.470000
     32 HAE         -4.2490     1.0570    -2.2840 ha         1 EI1       0.127500
     33 HAG         -1.7990     0.9760    -2.2250 ha         1 EI1       0.134000
@<TRIPOS>BOND
     1     1     2 1   
     2     1    20 1   
     3     1    21 1   
     4     1    22 1   
     5     2     3 1   
     6     2    23 1   
     7     2    24 1   
     8     3     4 2   
     9     3    12 1   
    10     4     5 ar  
    11     4    10 ar  
    12     5     6 ar  
    13     5    25 1   
    14     6     7 1   
    15     6     8 ar  
    16     7    26 1   
    17     8     9 ar  
    18     8    27 1   
    19     9    10 ar  
    20     9    28 1   
    21    10    11 2   
    22    11    12 1   
    23    12    13 1   
    24    13    14 ar  
    25    13    19 ar  
    26    14    15 ar  
    27    14    29 1   
    28    15    16 ar  
    29    15    30 1   
    30    16    17 1   
    31    16    18 ar  
    32    17    31 1   
    33    18    19 ar  
    34    18    32 1   
    35    19    33 1   
@<TRIPOS>SUBSTRUCTURE
     1 EI1         1 TEMP              0 ****  ****    0 ROOT
