@<TRIPOS>MOLECULE
EI3
   26    27     1     0     0
SMALL
bcc


@<TRIPOS>ATOM
      1 C1           4.9990    -0.0190    -0.0700 c3         1 EI3      -0.043300
      2 C2           3.5030     0.0410    -0.0580 ca         1 EI3      -0.186600
      3 C3           2.8120     1.2480     0.0010 ca         1 EI3      -0.105000
      4 C4           1.4300     1.2540     0.0170 ca         1 EI3      -0.200300
      5 C5           0.7510     0.0360    -0.0270 cp         1 EI3       0.353300
      6 N6           1.4030    -1.1220    -0.0840 nb         1 EI3      -0.673000
      7 C7           2.7270    -1.1140    -0.0990 ca         1 EI3       0.402200
      8 C14         -0.7290    -0.0210    -0.0150 cp         1 EI3       0.353300
      9 N15         -1.3800     1.1370     0.0420 nb         1 EI3      -0.673000
     10 C16         -2.7040     1.1290     0.0570 ca         1 EI3       0.402200
     11 C17         -3.4800    -0.0250     0.0150 ca         1 EI3      -0.186600
     12 C18         -2.7890    -1.2320    -0.0440 ca         1 EI3      -0.105000
     13 C19         -1.4070    -1.2380    -0.0590 ca         1 EI3      -0.200300
     14 C20         -4.9760     0.0340     0.0270 c3         1 EI3      -0.043300
     15 H1           5.4120     0.2940     0.8910 hc         1 EI3       0.045033
     16 H1A          5.3560    -1.0270    -0.2720 hc         1 EI3       0.045033
     17 H1B          5.4140     0.6440    -0.8300 hc         1 EI3       0.045033
     18 H3           3.3570     2.1840     0.0340 ha         1 EI3       0.136000
     19 H4           0.8780     2.1810     0.0630 ha         1 EI3       0.164000
     20 H7           3.2100    -2.0850    -0.1500 h4         1 EI3       0.016600
     21 H16         -3.1880     2.1000     0.1080 h4         1 EI3       0.016600
     22 H18         -3.3330    -2.1690    -0.0770 ha         1 EI3       0.136000
     23 H19         -0.8560    -2.1660    -0.1040 ha         1 EI3       0.164000
     24 H20         -5.3900    -0.2780    -0.9330 hc         1 EI3       0.045033
     25 H20A        -5.3910    -0.6280     0.7870 hc         1 EI3       0.045033
     26 H20B        -5.3330     1.0430     0.2290 hc         1 EI3       0.045033
@<TRIPOS>BOND
     1     1     2 1   
     2     1    15 1   
     3     1    16 1   
     4     1    17 1   
     5     2     3 ar  
     6     2     7 ar  
     7     3     4 ar  
     8     3    18 1   
     9     4     5 ar  
    10     4    19 1   
    11     5     6 ar  
    12     5     8 1   
    13     6     7 ar  
    14     7    20 1   
    15     8     9 ar  
    16     8    13 ar  
    17     9    10 ar  
    18    10    11 ar  
    19    10    21 1   
    20    11    12 ar  
    21    11    14 1   
    22    12    13 ar  
    23    12    22 1   
    24    13    23 1   
    25    14    24 1   
    26    14    25 1   
    27    14    26 1   
@<TRIPOS>SUBSTRUCTURE
     1 EI3         1 TEMP              0 ****  ****    0 ROOT
