@<TRIPOS>MOLECULE
EI3
   26    27     1     0     0
SMALL
No Charge or Current Charge


@<TRIPOS>ATOM
      1 C1           5.0880    -0.0080    -0.0700 c3         1 EI3      -0.043300
      2 C2           3.5670     0.0410    -0.0570 ca         1 EI3      -0.121300
      3 C3           2.8910     1.2710    -0.0280 ca         1 EI3      -0.087000
      4 C4           1.4860     1.2620    -0.0140 ca         1 EI3      -0.117000
      5 C5           0.7730     0.0310    -0.0280 cp         1 EI3       0.288000
      6 N6           1.4500    -1.1510    -0.0540 nb         1 EI3      -0.673000
      7 C7           2.8040    -1.1430    -0.0670 ca         1 EI3       0.336900
      8 C14         -0.7510    -0.0150    -0.0140 cp         1 EI3       0.288000
      9 N15         -1.4280     1.1660     0.0120 nb         1 EI3      -0.673000
     10 C16         -2.7810     1.1590     0.0250 ca         1 EI3       0.336900
     11 C17         -3.5440    -0.0250     0.0140 ca         1 EI3      -0.121300
     12 C18         -2.8680    -1.2550    -0.0150 ca         1 EI3      -0.087000
     13 C19         -1.4630    -1.2470    -0.0280 ca         1 EI3      -0.117000
     14 C20         -5.0650     0.0240     0.0270 c3         1 EI3      -0.043300
     15 H1           5.4920     0.1400     0.9390 hc         1 EI3       0.045033
     16 H1A          5.4570    -0.9730    -0.4390 hc         1 EI3       0.045033
     17 H1B          5.5040     0.7740    -0.7160 hc         1 EI3       0.045033
     18 H3           3.4380     2.2110    -0.0160 ha         1 EI3       0.118000
     19 H4           0.9480     2.2060     0.0070 ha         1 EI3       0.146000
     20 H7           3.2890    -2.1180    -0.0860 h4         1 EI3       0.016600
     21 H16         -3.2660     2.1340     0.0440 h4         1 EI3       0.016600
     22 H18         -3.4160    -2.1960    -0.0270 ha         1 EI3       0.118000
     23 H19         -0.9260    -2.1900    -0.0500 ha         1 EI3       0.146000
     24 H20         -5.4700    -0.1250    -0.9810 hc         1 EI3       0.045033
     25 H20A        -5.4820    -0.7580     0.6740 hc         1 EI3       0.045033
     26 H20B        -5.4340     0.9880     0.3970 hc         1 EI3       0.045033
@<TRIPOS>BOND
     1     1     2 1   
     2     1    15 1   
     3     1    16 1   
     4     1    17 1   
     5     2     3 ar  
     6     2     7 ar  
     7     3     4 ar  
     8     3    18 1   
     9     4     5 ar  
    10     4    19 1   
    11     5     6 ar  
    12     5     8 1   
    13     6     7 ar  
    14     7    20 1   
    15     8     9 ar  
    16     8    13 ar  
    17     9    10 ar  
    18    10    11 ar  
    19    10    21 1   
    20    11    12 ar  
    21    11    14 1   
    22    12    13 ar  
    23    12    22 1   
    24    13    23 1   
    25    14    24 1   
    26    14    25 1   
    27    14    26 1   
@<TRIPOS>SUBSTRUCTURE
     1 EI3         1 TEMP              0 ****  ****    0 ROOT
