@<TRIPOS>MOLECULE
EI4
   23    23     1     0     0
SMALL
No Charge or Current Charge


@<TRIPOS>ATOM
      1 N          -11.5610    -2.4120     6.8820 n8         1 EI4      -0.999200
      2 CA         -12.3960    -2.2690     8.1300 c3         1 EI4       0.018500
      3 CB         -13.2260    -3.5630     8.3570 c3         1 EI4      -0.074400
      4 CG         -14.1730    -3.5320     9.5930 c5         1 EI4       0.207500
      5 CD2        -15.3310    -2.4860     9.5370 c5         1 EI4       0.196800
      6 NE2        -16.3730    -3.2620     8.8260 nu         1 EI4      -0.890400
      7 CE1        -16.1410    -4.5460     9.1000 c2         1 EI4       0.786100
      8 ND1        -14.9640    -4.7850     9.6880 nu         1 EI4      -0.933400
      9 NT         -17.0890    -5.3410     9.2290 n2         1 EI4      -0.925100
     10 C          -11.6180    -1.8450     9.4440 c          1 EI4       0.686000
     11 O          -12.0670    -0.9220    10.1080 o          1 EI4      -0.733500
     12 O1         -10.5520    -2.3930     9.6950 o          1 EI4      -0.733500
     13 H1         -11.0740    -1.5250     6.7030 hn         1 EI4       0.384000
     14 H          -10.7890    -3.0600     7.0850 hn         1 EI4       0.384000
     15 HA         -13.1080    -1.4590     7.9230 h1         1 EI4       0.038700
     16 HB         -13.8100    -3.7660     7.4510 hc         1 EI4       0.034200
     17 HBA        -12.5310    -4.4040     8.4690 hc         1 EI4       0.034200
     18 HG1        -13.5580    -3.3660    10.4910 h1         1 EI4       0.104700
     19 HD2        -15.0490    -1.5580     9.0220 h1         1 EI4       0.054700
     20 HE         -17.3510    -3.0350     8.9600 hn         1 EI4       0.473000
     21 HND1       -14.5390    -5.6590     9.3970 hn         1 EI4       0.464000
     22 HD1        -15.6540    -2.2220    10.5540 h1         1 EI4       0.054700
     23 H2         -16.7020    -6.1780     9.6780 hn         1 EI4       0.367400
@<TRIPOS>BOND
     1     1     2 1   
     2     1    13 1   
     3     1    14 1   
     4     2     3 1   
     5     2    10 1   
     6     2    15 1   
     7     3     4 1   
     8     3    16 1   
     9     3    17 1   
    10     4     5 1   
    11     4     8 1   
    12     4    18 1   
    13     5     6 1   
    14     5    19 1   
    15     5    22 1   
    16     6     7 1   
    17     6    20 1   
    18     7     8 1   
    19     7     9 2   
    20     8    21 1   
    21     9    23 1   
    22    10    11 1   
    23    10    12 1   
@<TRIPOS>SUBSTRUCTURE
     1 EI4         1 TEMP              0 ****  ****    0 ROOT
