@<TRIPOS>MOLECULE
EI4
   23    23     1     0     0
SMALL
bcc


@<TRIPOS>ATOM
      1 N          -11.6500    -2.4720     6.9230 n8         1 EI4      -0.888800
      2 CA         -12.4210    -2.2450     8.1400 c3         1 EI4       0.018500
      3 CB         -13.2510    -3.5060     8.4080 c3         1 EI4      -0.074400
      4 CG         -14.1590    -3.4650     9.6370 c5         1 EI4       0.207500
      5 CD2        -15.3080    -2.4550     9.5360 c5         1 EI4       0.196800
      6 NE2        -16.3440    -3.2560     8.9160 nu         1 EI4      -0.835200
      7 CE1        -16.1660    -4.5820     9.2250 c2         1 EI4       0.786100
      8 ND1        -14.9200    -4.6980     9.7970 nu         1 EI4      -0.878200
      9 NT         -17.0450    -5.4850     9.0010 n2         1 EI4      -0.925100
     10 C          -11.5760    -1.8810     9.3850 c          1 EI4       0.896600
     11 O          -12.1020    -1.1080    10.2130 o          1 EI4      -0.838800
     12 O1         -10.4510    -2.4160     9.4720 o          1 EI4      -0.838800
     13 H1         -11.2070    -1.6020     6.6510 hn         1 EI4       0.328800
     14 H          -10.8790    -3.0850     7.1650 hn         1 EI4       0.328800
     15 HA         -13.1090    -1.4170     7.9410 h1         1 EI4       0.038700
     16 HB         -13.8580    -3.7140     7.5220 hc         1 EI4       0.034200
     17 HBA        -12.5670    -4.3550     8.5230 hc         1 EI4       0.034200
     18 HG1        -13.5690    -3.2780    10.5330 h1         1 EI4       0.104700
     19 HD2        -15.0520    -1.5870     8.9310 h1         1 EI4       0.054700
     20 HE         -17.2890    -2.9090     8.8920 hn         1 EI4       0.417800
     21 HND1       -14.4380    -5.5790     9.6980 hn         1 EI4       0.408800
     22 HD1        -15.5970    -2.0990    10.5310 h1         1 EI4       0.054700
     23 H2         -16.6960    -6.3930     9.2830 hn         1 EI4       0.367400
@<TRIPOS>BOND
     1     1     2 1   
     2     1    13 1   
     3     1    14 1   
     4     2     3 1   
     5     2    10 1   
     6     2    15 1   
     7     3     4 1   
     8     3    16 1   
     9     3    17 1   
    10     4     5 1   
    11     4     8 1   
    12     4    18 1   
    13     5     6 1   
    14     5    19 1   
    15     5    22 1   
    16     6     7 1   
    17     6    20 1   
    18     7     8 1   
    19     7     9 2   
    20     8    21 1   
    21     9    23 1   
    22    10    11 1   
    23    10    12 1   
@<TRIPOS>SUBSTRUCTURE
     1 EI4         1 TEMP              0 ****  ****    0 ROOT
