@<TRIPOS>MOLECULE
EI5
   51    53     1     0     0
SMALL
bcc


@<TRIPOS>ATOM
      1 N1          74.7130    84.4280   127.4600 n7         1 EI5      -0.841200
      2 C7          76.1760    84.8480   133.8020 cp         1 EI5       0.046000
      3 C8          75.8740    85.7250   132.7660 ca         1 EI5      -0.197000
      4 C9          76.2350    85.4550   131.4380 ca         1 EI5       0.149600
      5 O1          74.0990    83.6350   139.4130 o          1 EI5      -0.823300
      6 C1          75.8400    86.4720   135.6770 ca         1 EI5      -0.138000
      7 C5          75.0060    85.7390   137.8130 ca         1 EI5      -0.092000
      8 C4          74.9300    84.4280   137.3510 ca         1 EI5      -0.141600
      9 C3          75.3200    84.1610   136.0430 ca         1 EI5      -0.084000
     10 C2          75.7750    85.1660   135.1890 cp         1 EI5      -0.096000
     11 N           75.9500    86.3750   130.4550 nu         1 EI5      -0.754600
     12 C           75.4590    86.7530   136.9810 ca         1 EI5      -0.171000
     13 O           74.3650    82.1670   137.7550 o          1 EI5      -0.823300
     14 C10         76.9070    84.2540   131.1700 ca         1 EI5      -0.218000
     15 C11         77.2060    83.3790   132.2040 ca         1 EI5      -0.100000
     16 C12         76.8520    83.6590   133.5130 ca         1 EI5      -0.155000
     17 C13         75.8670    85.9980   129.0630 c3         1 EI5       0.175800
     18 C14         74.6600    85.1040   128.7430 c3         1 EI5       0.116800
     19 C15         75.6990    83.3700   127.3560 c3         1 EI5       0.122800
     20 C16         75.1450    82.0930   128.0070 c3         1 EI5       0.192400
     21 C17         76.0660    80.9360   127.7240 ca         1 EI5      -0.076300
     22 C18         77.1020    80.6620   128.6110 ca         1 EI5      -0.113000
     23 C19         77.9950    79.6400   128.3300 ca         1 EI5       0.027400
     24 C20         77.8790    78.8730   127.1820 ca         1 EI5      -0.124000
     25 C21         76.8400    79.1500   126.3050 ca         1 EI5      -0.131000
     26 C22         75.9390    80.1710   126.5680 ca         1 EI5      -0.104000
     27 O2          73.8560    81.8400   127.5180 oh         1 EI5      -0.598800
     28 CL          79.2790    79.3110   129.4510 cl         1 EI5      -0.114400
     29 H1          74.8170    85.0910   126.7040 hn         1 EI5       0.365800
     30 H3          75.3210    86.6330   132.9790 ha         1 EI5       0.127000
     31 H5          76.2080    87.2700   135.0440 ha         1 EI5       0.103000
     32 H6          74.7090    85.9650   138.8280 ha         1 EI5       0.145000
     33 H7          75.2460    83.1440   135.6790 ha         1 EI5       0.149000
     34 H8          75.2960    87.0920   130.7290 hn         1 EI5       0.404800
     35 H9          75.5220    87.7690   137.3490 ha         1 EI5       0.104000
     36 H10         77.2050    83.9930   130.1640 ha         1 EI5       0.112000
     37 H11         77.7330    82.4610   131.9750 ha         1 EI5       0.119000
     38 H12         77.1130    82.9710   134.3060 ha         1 EI5       0.149000
     39 H13         76.7980    85.5110   128.7650 h1         1 EI5       0.044700
     40 H14         75.8120    86.9140   128.4730 h1         1 EI5       0.044700
     41 H15         73.7510    85.7100   128.7810 h1         1 EI5       0.064200
     42 H16         74.5480    84.3500   129.5270 h1         1 EI5       0.064200
     43 H17         76.6730    83.6060   127.8040 h1         1 EI5       0.044200
     44 H18         75.8780    83.1770   126.2960 h1         1 EI5       0.044200
     45 H19         75.1230    82.2430   129.0980 h1         1 EI5       0.056700
     46 H20         77.2040    81.2420   129.5200 ha         1 EI5       0.154000
     47 H21         78.5810    78.0760   126.9770 ha         1 EI5       0.142000
     48 H22         76.7360    78.5570   125.4060 ha         1 EI5       0.129000
     49 H23         75.1380    80.3690   125.8700 ha         1 EI5       0.145000
     50 H24         73.4960    82.7210   127.3200 ho         1 EI5       0.432000
     51 C6          74.4180    83.3060   138.2550 c          1 EI5       0.925200
@<TRIPOS>BOND
     1     1    18 1   
     2     1    19 1   
     3     1    29 1   
     4     2     3 ar  
     5     2    10 1   
     6     2    16 ar  
     7     3     4 ar  
     8     3    30 1   
     9     4    11 1   
    10     4    14 ar  
    11     5    51 1   
    12     6    10 ar  
    13     6    12 ar  
    14     6    31 1   
    15     7     8 ar  
    16     7    12 ar  
    17     7    32 1   
    18     8     9 ar  
    19     8    51 1   
    20     9    10 ar  
    21     9    33 1   
    22    11    17 1   
    23    11    34 1   
    24    12    35 1   
    25    13    51 1   
    26    14    15 ar  
    27    14    36 1   
    28    15    16 ar  
    29    15    37 1   
    30    16    38 1   
    31    17    18 1   
    32    17    39 1   
    33    17    40 1   
    34    18    41 1   
    35    18    42 1   
    36    19    20 1   
    37    19    43 1   
    38    19    44 1   
    39    20    21 1   
    40    20    27 1   
    41    20    45 1   
    42    21    22 ar  
    43    21    26 ar  
    44    22    23 ar  
    45    22    46 1   
    46    23    24 ar  
    47    23    28 1   
    48    24    25 ar  
    49    24    47 1   
    50    25    26 ar  
    51    25    48 1   
    52    26    49 1   
    53    27    50 1   
@<TRIPOS>SUBSTRUCTURE
     1 EI5         1 TEMP              0 ****  ****    0 ROOT
