@<TRIPOS>MOLECULE
EI5
   51    53     1     0     0
SMALL
No Charge or Current Charge


@<TRIPOS>ATOM
      1 N1          74.6130    84.0290   127.6710 n7         1 EI5      -0.896400
      2 C7          76.0430    85.0470   134.2450 cp         1 EI5       0.046000
      3 C8          75.7780    85.7760   133.0590 ca         1 EI5      -0.179000
      4 C9          76.2030    85.3120   131.8050 ca         1 EI5       0.288000
      5 O1          73.8670    84.5610   139.9970 o          1 EI5      -0.718000
      6 C1          75.5650    86.9330   135.8740 ca         1 EI5      -0.120000
      7 C5          74.7120    86.4970   138.1110 ca         1 EI5      -0.074000
      8 C4          74.7120    85.1060   137.8580 ca         1 EI5      -0.141600
      9 C3          75.1490    84.6500   136.5910 ca         1 EI5      -0.066000
     10 C2          75.5820    85.5480   135.5810 cp         1 EI5      -0.096000
     11 N           75.9100    86.0690   130.6670 nu         1 EI5      -0.948200
     12 C           75.1360    87.4010   137.1250 ca         1 EI5      -0.153000
     13 O           74.2770    82.9270   138.6660 o          1 EI5      -0.718000
     14 C10         76.9150    84.1030   131.7160 ca         1 EI5      -0.200000
     15 C11         77.1910    83.3610   132.8750 ca         1 EI5      -0.082000
     16 C12         76.7580    83.8290   134.1260 ca         1 EI5      -0.137000
     17 C13         75.8410    85.5820   129.2730 c3         1 EI5       0.175800
     18 C14         74.7020    84.5380   129.0720 c3         1 EI5       0.116800
     19 C15         75.7490    83.1780   127.1870 c3         1 EI5       0.122800
     20 C16         75.7360    81.7870   127.8820 c3         1 EI5       0.215600
     21 C17         76.4420    80.6910   127.0840 ca         1 EI5      -0.076300
     22 C18         77.6000    80.0750   127.6030 ca         1 EI5      -0.095000
     23 C19         78.2580    79.0700   126.8740 ca         1 EI5       0.119000
     24 C20         77.7670    78.6690   125.6210 ca         1 EI5      -0.106000
     25 C21         76.6130    79.2750   125.0960 ca         1 EI5      -0.113000
     26 C22         75.9530    80.2810   125.8240 ca         1 EI5      -0.086000
     27 O2          74.3610    81.4790   128.0900 oh         1 EI5      -0.661000
     28 Cl          79.7020    78.3120   127.5330 cl         1 EI5      -0.206000
     29 H1          74.5320    84.8450   127.0450 hn         1 EI5       0.421000
     30 H3          75.2200    86.7050   133.1160 ha         1 EI5       0.109000
     31 H5          75.9010    87.6520   135.1310 ha         1 EI5       0.085000
     32 H6          74.3820    86.8820   139.0740 ha         1 EI5       0.127000
     33 H7          75.1400    83.5840   136.3780 ha         1 EI5       0.131000
     34 H8          75.4550    86.9640   130.8540 hn         1 EI5       0.460000
     35 H9          75.1330    88.4680   137.3320 ha         1 EI5       0.086000
     36 H10         77.2610    83.7330   130.7570 ha         1 EI5       0.094000
     37 H11         77.7450    82.4270   132.8050 ha         1 EI5       0.101000
     38 H12         76.9940    83.2490   135.0140 ha         1 EI5       0.131000
     39 H13         76.8050    85.1380   128.9900 h1         1 EI5       0.044700
     40 H14         75.6620    86.4300   128.5980 h1         1 EI5       0.044700
     41 H15         73.7540    85.0200   129.3500 h1         1 EI5       0.064200
     42 H16         74.8510    83.7090   129.7780 h1         1 EI5       0.064200
     43 H17         76.7230    83.6600   127.3450 h1         1 EI5       0.044200
     44 H18         75.6450    83.0230   126.1040 h1         1 EI5       0.044200
     45 H19         76.2320    81.8980   128.8560 h1         1 EI5       0.056700
     46 H20         77.9930    80.3740   128.5720 ha         1 EI5       0.136000
     47 H21         78.2790    77.8920   125.0600 ha         1 EI5       0.124000
     48 H22         76.2300    78.9650   124.1260 ha         1 EI5       0.111000
     49 H23         75.0580    80.7400   125.4110 ha         1 EI5       0.127000
     50 H24         73.9800    82.3960   128.0140 ho         1 EI5       0.471000
     51 C6          74.2490    84.1230   138.9210 c          1 EI5       0.714600
@<TRIPOS>BOND
     1     1    18 1   
     2     1    19 1   
     3     1    29 1   
     4     2     3 ar  
     5     2    10 1   
     6     2    16 ar  
     7     3     4 ar  
     8     3    30 1   
     9     4    11 1   
    10     4    14 ar  
    11     5    51 1   
    12     6    10 ar  
    13     6    12 ar  
    14     6    31 1   
    15     7     8 ar  
    16     7    12 ar  
    17     7    32 1   
    18     8     9 ar  
    19     8    51 1   
    20     9    10 ar  
    21     9    33 1   
    22    11    17 1   
    23    11    34 1   
    24    12    35 1   
    25    13    51 1   
    26    14    15 ar  
    27    14    36 1   
    28    15    16 ar  
    29    15    37 1   
    30    16    38 1   
    31    17    18 1   
    32    17    39 1   
    33    17    40 1   
    34    18    41 1   
    35    18    42 1   
    36    19    20 1   
    37    19    43 1   
    38    19    44 1   
    39    20    21 1   
    40    20    27 1   
    41    20    45 1   
    42    21    22 ar  
    43    21    26 ar  
    44    22    23 ar  
    45    22    46 1   
    46    23    24 ar  
    47    23    28 1   
    48    24    25 ar  
    49    24    47 1   
    50    25    26 ar  
    51    25    48 1   
    52    26    49 1   
    53    27    50 1   
@<TRIPOS>SUBSTRUCTURE
     1 EI5         1 TEMP              0 ****  ****    0 ROOT
