@<TRIPOS>MOLECULE
EI7
   18    19     1     0     0
SMALL
abcg2


@<TRIPOS>ATOM
      1 N1         146.9930   109.9980   106.6170 n7         1 EI7      -0.849400
      2 C2         145.9450   107.4130   106.4940 cc         1 EI7      -0.294400
      3 C4         147.2300   109.0900   107.7310 c6         1 EI7       0.147800
      4 C5         145.6650   109.8710   106.0450 c6         1 EI7       0.210000
      5 N          144.2380   106.6650   105.2580 ns         1 EI7      -0.331400
      6 C          145.2190   106.2160   106.1300 c          1 EI7       0.541200
      7 O          145.3760   105.0470   106.4400 o          1 EI7      -0.509000
      8 C1         145.2860   108.4350   105.9280 cd         1 EI7       0.050900
      9 C3         147.1410   107.6030   107.3590 c6         1 EI7      -0.030200
     10 O1         144.2170   108.0460   105.2210 os         1 EI7      -0.104200
     11 H1         147.6850   109.8350   105.8950 hn         1 EI7       0.419000
     12 H3         148.2090   109.3120   108.1560 h1         1 EI7       0.060700
     13 H4         146.4900   109.3110   108.5060 h1         1 EI7       0.060700
     14 H5         145.6380   110.3640   105.0710 h1         1 EI7       0.080700
     15 H6         144.9330   110.3880   106.6760 h1         1 EI7       0.080700
     16 H7         143.3000   106.2830   105.2400 hn         1 EI7       0.338500
     17 H8         147.0710   106.9930   108.2630 hc         1 EI7       0.064200
     18 H9         148.0480   107.2830   106.8380 hc         1 EI7       0.064200
@<TRIPOS>BOND
     1     1     3 1   
     2     1     4 1   
     3     1    11 1   
     4     2     6 1   
     5     2     8 2   
     6     2     9 1   
     7     3     9 1   
     8     3    12 1   
     9     3    13 1   
    10     4     8 1   
    11     4    14 1   
    12     4    15 1   
    13     5     6 1   
    14     5    10 1   
    15     5    16 1   
    16     6     7 2   
    17     8    10 1   
    18     9    17 1   
    19     9    18 1   
@<TRIPOS>SUBSTRUCTURE
     1 EI7         1 TEMP              0 ****  ****    0 ROOT
