@<TRIPOS>MOLECULE
EI7
   18    19     1     0     0
SMALL
No Charge or Current Charge


@<TRIPOS>ATOM
      1 N1         147.0450   110.0240   106.6020 n7         1 EI7      -0.849400
      2 C2         145.9030   107.4480   106.4520 cc         1 EI7      -0.294400
      3 C4         147.2630   109.0990   107.7600 c6         1 EI7       0.147800
      4 C5         145.6530   109.9380   106.0460 c6         1 EI7       0.210000
      5 N          144.2270   106.6120   105.2580 ns         1 EI7      -0.331400
      6 C          145.2220   106.2170   106.1220 c          1 EI7       0.541200
      7 O          145.4380   105.0850   106.5230 o          1 EI7      -0.509000
      8 C1         145.2600   108.4860   105.8590 cd         1 EI7       0.050900
      9 C3         147.1010   107.5970   107.3600 c6         1 EI7      -0.030200
     10 O1         144.1780   108.0620   105.1340 os         1 EI7      -0.104200
     11 H1         147.6950   109.7420   105.8580 hn         1 EI7       0.419000
     12 H3         148.2680   109.2560   108.1810 h1         1 EI7       0.060700
     13 H4         146.5400   109.3390   108.5540 h1         1 EI7       0.060700
     14 H5         145.5900   110.4790   105.0900 h1         1 EI7       0.080700
     15 H6         144.9450   110.4150   106.7410 h1         1 EI7       0.080700
     16 H7         143.3420   106.1180   105.2210 hn         1 EI7       0.338500
     17 H8         147.0040   106.9800   108.2630 hc         1 EI7       0.064200
     18 H9         148.0100   107.2560   106.8450 hc         1 EI7       0.064200
@<TRIPOS>BOND
     1     1     3 1   
     2     1     4 1   
     3     1    11 1   
     4     2     6 1   
     5     2     8 2   
     6     2     9 1   
     7     3     9 1   
     8     3    12 1   
     9     3    13 1   
    10     4     8 1   
    11     4    14 1   
    12     4    15 1   
    13     5     6 1   
    14     5    10 1   
    15     5    16 1   
    16     6     7 2   
    17     8    10 1   
    18     9    17 1   
    19     9    18 1   
@<TRIPOS>SUBSTRUCTURE
     1 EI7         1 TEMP              0 ****  ****    0 ROOT
