@<TRIPOS>MOLECULE
EI8
   50    53     1     0     0
SMALL
abcg2


@<TRIPOS>ATOM
      1 C10          2.6150    -2.6670     0.7120 ca         1 EI8       0.028200
      2 C11          3.4510    -3.7160     1.2120 cc         1 EI8      -0.271200
      3 C12          4.5300    -4.0840     0.4970 cd         1 EI8      -0.025400
      4 C13          4.1240    -2.4690    -1.2690 c          1 EI8       0.571600
      5 C14          2.9430    -2.0480    -0.5090 ca         1 EI8      -0.166600
      6 C15          2.1510    -1.0130    -1.0100 ca         1 EI8       0.006000
      7 C16         -2.2180    -0.6610    -0.9890 ca         1 EI8      -0.320500
      8 C17         -3.2240     0.1430    -0.4770 ca         1 EI8       0.081000
      9 C18         -4.1920    -0.4620     0.3100 ca         1 EI8      -0.355500
     10 C19         -4.1800    -1.8230     0.5850 ca         1 EI8       0.042000
     11 C2           3.7510     3.3400     1.2020 ca         1 EI8      -0.010000
     12 C20         -3.1630    -2.6010     0.0580 ca         1 EI8      -0.149000
     13 C21         -2.1790    -2.0270    -0.7320 ca         1 EI8       0.050000
     14 C22          1.6970     2.2660     1.8150 ca         1 EI8      -0.094000
     15 C23          2.9060     2.8320     2.1850 ca         1 EI8      -0.073000
     16 C3           3.3850     3.2840    -0.1450 ca         1 EI8      -0.073000
     17 C4           2.1760     2.7180    -0.4960 ca         1 EI8      -0.094000
     18 C5           1.3220     2.2100     0.4800 ca         1 EI8      -0.072300
     19 C6           0.0070     1.6010     0.0790 c3         1 EI8       0.253100
     20 C7           1.0360    -0.6010    -0.3170 ca         1 EI8       0.199000
     21 C8           0.6970    -1.2150     0.8960 ca         1 EI8      -0.093000
     22 C9           1.4760    -2.2270     1.4030 ca         1 EI8      -0.120000
     23 N1           6.0090     4.3910     1.8720 n1         1 EI8      -0.448000
     24 N2           0.2540     0.4760    -0.8280 nh         1 EI8      -0.752300
     25 N3           4.8390    -3.4810    -0.6880 ns         1 EI8      -0.383100
     26 O1           4.4690    -1.9790    -2.3350 o          1 EI8      -0.538000
     27 O2          -0.3620    -0.9280    -2.8070 o          1 EI8      -0.520000
     28 O3          -1.4210     1.3340    -2.4820 o          1 EI8      -0.520000
     29 O4          -5.5400     1.8030     0.3100 o          1 EI8      -0.530500
     30 O5          -6.6600    -0.2570     1.2100 o          1 EI8      -0.530500
     31 S1          -0.9180     0.0880    -1.9380 sy         1 EI8       1.164600
     32 S2          -5.4820     0.5290     0.9710 sy         1 EI8       1.342400
     33 H1           3.2230    -4.2040     2.1480 ha         1 EI8       0.202000
     34 H3           5.2060    -4.8650     0.8110 h4         1 EI8       0.202000
     35 H4           2.4200    -0.5260    -1.9380 ha         1 EI8       0.157000
     36 H5          -3.2610     1.2020    -0.6960 ha         1 EI8       0.162000
     37 H6          -4.9500    -2.2800     1.1900 ha         1 EI8       0.143000
     38 H7          -3.1420    -3.6630     0.2580 ha         1 EI8       0.131000
     39 H8          -1.3970    -2.6470    -1.1490 ha         1 EI8       0.147000
     40 H9           1.0420     1.8650     2.5790 ha         1 EI8       0.124000
     41 H10          3.1940     2.8730     3.2270 ha         1 EI8       0.129000
     42 H11          4.0450     3.6810    -0.9040 ha         1 EI8       0.129000
     43 H12          1.8930     2.6710    -1.5400 ha         1 EI8       0.124000
     44 H13         -0.5560     1.2920     0.9650 h1         1 EI8       0.064200
     45 H14         -0.5920     2.3460    -0.4420 h1         1 EI8       0.064200
     46 H15         -0.1800    -0.8930     1.4440 ha         1 EI8       0.115000
     47 H16          1.2100    -2.6940     2.3430 ha         1 EI8       0.122000
     48 F1          -4.8590     0.8170     2.4140 f          1 EI8      -0.265900
     49 H2           5.6580    -3.8010    -1.1860 hn         1 EI8       0.331500
     50 C1           5.0000     3.9230     1.5730 cg         1 EI8       0.321000
@<TRIPOS>BOND
     1     1     2 1   
     2     1     5 ar  
     3     1    22 ar  
     4     2     3 2   
     5     2    33 1   
     6     3    25 1   
     7     3    34 1   
     8     4     5 1   
     9     4    25 1   
    10     4    26 2   
    11     5     6 ar  
    12     6    20 ar  
    13     6    35 1   
    14     7     8 ar  
    15     7    13 ar  
    16     7    31 1   
    17     8     9 ar  
    18     8    36 1   
    19     9    10 ar  
    20     9    32 1   
    21    10    12 ar  
    22    10    37 1   
    23    11    15 ar  
    24    11    16 ar  
    25    11    50 1   
    26    12    13 ar  
    27    12    38 1   
    28    13    39 1   
    29    14    15 ar  
    30    14    18 ar  
    31    14    40 1   
    32    15    41 1   
    33    16    17 ar  
    34    16    42 1   
    35    17    18 ar  
    36    17    43 1   
    37    18    19 1   
    38    19    24 1   
    39    19    44 1   
    40    19    45 1   
    41    20    21 ar  
    42    20    24 1   
    43    21    22 ar  
    44    21    46 1   
    45    22    47 1   
    46    23    50 3   
    47    24    31 1   
    48    25    49 1   
    49    27    31 2   
    50    28    31 2   
    51    29    32 2   
    52    30    32 2   
    53    32    48 1   
@<TRIPOS>SUBSTRUCTURE
     1 EI8         1 TEMP              0 ****  ****    0 ROOT
