@<TRIPOS>MOLECULE
EI8
   50    53     1     0     0
SMALL
No Charge or Current Charge


@<TRIPOS>ATOM
      1 C10          2.3240    -2.3080     0.7190 ca         1 EI8       0.028200
      2 C11          3.0680    -3.3630     1.4050 cc         1 EI8      -0.271200
      3 C12          4.0230    -4.0670     0.6970 cd         1 EI8      -0.025400
      4 C13          3.6200    -2.8010    -1.3710 c          1 EI8       0.571600
      5 C14          2.5760    -2.0190    -0.6360 ca         1 EI8      -0.166600
      6 C15          1.8480    -0.9980    -1.2830 ca         1 EI8       0.006000
      7 C16         -2.0680    -0.7230    -1.1370 ca         1 EI8      -0.320500
      8 C17         -3.0090    -0.1070    -0.2900 ca         1 EI8       0.081000
      9 C18         -3.7370    -0.8920     0.6280 ca         1 EI8      -0.355500
     10 C19         -3.5190    -2.2830     0.7010 ca         1 EI8       0.042000
     11 C2           3.6700     3.1500     1.6070 ca         1 EI8      -0.010000
     12 C20         -2.5760    -2.8860    -0.1470 ca         1 EI8      -0.149000
     13 C21         -1.8490    -2.1120    -1.0660 ca         1 EI8       0.050000
     14 C22          1.2640     2.7640     1.4740 ca         1 EI8      -0.094000
     15 C23          2.4080     3.0810     2.2280 ca         1 EI8      -0.073000
     16 C3           3.7790     2.9010     0.2250 ca         1 EI8      -0.073000
     17 C4           2.6340     2.5850    -0.5270 ca         1 EI8      -0.094000
     18 C5           1.3710     2.5130     0.0920 ca         1 EI8      -0.072300
     19 C6           0.1380     2.1440    -0.7290 c3         1 EI8       0.253100
     20 C7           0.8690    -0.2630    -0.5880 ca         1 EI8       0.199000
     21 C8           0.6290    -0.5560     0.7670 ca         1 EI8      -0.093000
     22 C9           1.3490    -1.5720     1.4150 ca         1 EI8      -0.120000
     23 N1           5.7860     3.7390     3.0070 n1         1 EI8      -0.448000
     24 N2           0.1460     0.7590    -1.2340 nh         1 EI8      -0.752300
     25 N3           4.2600    -3.7680    -0.6350 ns         1 EI8      -0.383100
     26 O1           3.8980    -2.6100    -2.5450 o          1 EI8      -0.538000
     27 O2          -0.5190    -0.5830    -3.3060 o          1 EI8      -0.520000
     28 O3          -1.8800     1.4790    -2.6230 o          1 EI8      -0.520000
     29 O4          -5.3590     1.1840     1.1600 o          1 EI8      -0.530500
     30 O5          -5.8970    -1.1080     2.2150 o          1 EI8      -0.530500
     31 S1          -1.1120     0.2780    -2.2780 sy         1 EI8       1.164600
     32 S2          -4.9370    -0.1070     1.7240 sy         1 EI8       1.342400
     33 H1           2.8860    -3.6000     2.4510 ha         1 EI8       0.202000
     34 H3           4.6340    -4.8700     1.1080 h4         1 EI8       0.202000
     35 H4           2.0420    -0.7640    -2.3260 ha         1 EI8       0.157000
     36 H5          -3.1660     0.9720    -0.3420 ha         1 EI8       0.162000
     37 H6          -4.0700    -2.9000     1.4090 ha         1 EI8       0.143000
     38 H7          -2.4040    -3.9580    -0.0890 ha         1 EI8       0.131000
     39 H8          -1.1140    -2.5950    -1.7080 ha         1 EI8       0.147000
     40 H9           0.2970     2.7070     1.9680 ha         1 EI8       0.124000
     41 H10          2.3120     3.2700     3.2960 ha         1 EI8       0.129000
     42 H11          4.7480     2.9490    -0.2670 ha         1 EI8       0.129000
     43 H12          2.7270     2.3850    -1.5930 ha         1 EI8       0.124000
     44 H13         -0.7620     2.3080    -0.1200 h1         1 EI8       0.064200
     45 H14          0.0860     2.8440    -1.5750 h1         1 EI8       0.064200
     46 H15         -0.1260     0.0010     1.3140 ha         1 EI8       0.115000
     47 H16          1.1480    -1.7890     2.4620 ha         1 EI8       0.122000
     48 F1          -3.9810     0.2530     2.9930 f          1 EI8      -0.265900
     49 H2           4.9620    -4.2850    -1.1530 hn         1 EI8       0.331500
     50 C1           4.8390     3.4700     2.3780 cg         1 EI8       0.321000
@<TRIPOS>BOND
     1     1     2 1   
     2     1     5 ar  
     3     1    22 ar  
     4     2     3 2   
     5     2    33 1   
     6     3    25 1   
     7     3    34 1   
     8     4     5 1   
     9     4    25 1   
    10     4    26 2   
    11     5     6 ar  
    12     6    20 ar  
    13     6    35 1   
    14     7     8 ar  
    15     7    13 ar  
    16     7    31 1   
    17     8     9 ar  
    18     8    36 1   
    19     9    10 ar  
    20     9    32 1   
    21    10    12 ar  
    22    10    37 1   
    23    11    15 ar  
    24    11    16 ar  
    25    11    50 1   
    26    12    13 ar  
    27    12    38 1   
    28    13    39 1   
    29    14    15 ar  
    30    14    18 ar  
    31    14    40 1   
    32    15    41 1   
    33    16    17 ar  
    34    16    42 1   
    35    17    18 ar  
    36    17    43 1   
    37    18    19 1   
    38    19    24 1   
    39    19    44 1   
    40    19    45 1   
    41    20    21 ar  
    42    20    24 1   
    43    21    22 ar  
    44    21    46 1   
    45    22    47 1   
    46    23    50 3   
    47    24    31 1   
    48    25    49 1   
    49    27    31 2   
    50    28    31 2   
    51    29    32 2   
    52    30    32 2   
    53    32    48 1   
@<TRIPOS>SUBSTRUCTURE
     1 EI8         1 TEMP              0 ****  ****    0 ROOT
