@<TRIPOS>MOLECULE
EI9
   48    51     1     0     0
SMALL
abcg2


@<TRIPOS>ATOM
      1 C1           2.5640     2.4650     1.0760 c          1 EI9       0.570600
      2 C10          1.7300    -2.5340     2.1060 ca         1 EI9      -0.145000
      3 C11          2.8460    -3.2130     2.5750 ca         1 EI9       0.333900
      4 C12          3.1370    -4.2760     0.5910 ca         1 EI9       0.333900
      5 C13          2.0350    -3.6530     0.0310 ca         1 EI9      -0.145000
      6 C14         -1.6590     0.3120    -1.3000 ca         1 EI9      -0.321500
      7 C15         -1.2250     1.6010    -1.5870 ca         1 EI9       0.050000
      8 C16         -1.8140     2.6780    -0.9430 ca         1 EI9      -0.143000
      9 C17         -2.8290     2.4730    -0.0230 ca         1 EI9       0.047000
     10 C18         -3.2420     1.1730     0.2400 ca         1 EI9      -0.353500
     11 C19         -2.6760     0.0750    -0.3890 ca         1 EI9       0.081000
     12 C2           4.6230     3.2830     0.0850 cc         1 EI9      -0.032400
     13 C20          1.5070     0.5240    -0.0070 ca         1 EI9      -0.060000
     14 C21          2.5540     1.4460     0.0240 ca         1 EI9      -0.170600
     15 C3           4.6340     2.3550    -0.8900 cd         1 EI9      -0.262200
     16 C4           3.5740     1.3950    -0.9430 ca         1 EI9       0.027200
     17 C5           3.5170     0.3920    -1.9250 ca         1 EI9      -0.118000
     18 C6           2.4880    -0.5180    -1.9410 ca         1 EI9      -0.031000
     19 C7           1.4700    -0.4500    -0.9810 ca         1 EI9       0.198000
     20 C8           0.0890    -2.0710     0.2570 c3         1 EI9       0.244100
     21 C9           1.3060    -2.7580     0.8060 ca         1 EI9      -0.054300
     22 N1           3.6270     3.3260     1.0180 ns         1 EI9      -0.383100
     23 N2           0.4210    -1.4180    -1.0120 nh         1 EI9      -0.737300
     24 N3           3.5440    -4.0680     1.8400 nb         1 EI9      -0.660000
     25 O1           1.7110     2.5640     1.9460 o          1 EI9      -0.553000
     26 O2          -1.7380    -2.2060    -2.0250 o          1 EI9      -0.523500
     27 O3          -0.2510    -0.6190    -3.2930 o          1 EI9      -0.523500
     28 O4          -5.3600     2.0740     1.5230 o          1 EI9      -0.533000
     29 O5          -5.0800    -0.4100     1.2710 o          1 EI9      -0.533000
     30 S1          -0.8360    -1.0720    -2.0480 sy         1 EI9       1.158600
     31 S2          -4.5280     0.9090     1.4060 sy         1 EI9       1.343400
     32 H1           1.2070    -1.8410     2.7530 ha         1 EI9       0.128500
     33 H2           3.1900    -3.0500     3.5900 h4         1 EI9       0.021100
     34 H3           3.7170    -4.9780     0.0030 h4         1 EI9       0.021100
     35 H4           1.7560    -3.8640    -0.9930 ha         1 EI9       0.128500
     36 H5          -0.4420     1.7720    -2.3120 ha         1 EI9       0.145000
     37 H6          -1.4840     3.6830    -1.1630 ha         1 EI9       0.131000
     38 H7          -3.2870     3.3180     0.4710 ha         1 EI9       0.144000
     39 H8          -3.0210    -0.9290    -0.1830 ha         1 EI9       0.160000
     40 H9           5.3890     4.0370     0.1910 h4         1 EI9       0.203000
     41 H10          0.7370     0.5870     0.7520 ha         1 EI9       0.138000
     42 H11          5.4320     2.3380    -1.6170 ha         1 EI9       0.204000
     43 H13          4.3000     0.3320    -2.6690 ha         1 EI9       0.128000
     44 H14          2.4640    -1.3000    -2.6870 ha         1 EI9       0.139000
     45 H15         -0.6840    -2.8160     0.0740 h1         1 EI9       0.068200
     46 H16         -0.3120    -1.3650     0.9930 h1         1 EI9       0.068200
     47 F1          -3.6490     0.8760     2.7390 f          1 EI9      -0.262900
     48 H12          3.6700     4.0430     1.7290 hn         1 EI9       0.330500
@<TRIPOS>BOND
     1     1    14 1   
     2     1    22 1   
     3     1    25 2   
     4     2     3 ar  
     5     2    21 ar  
     6     2    32 1   
     7     3    24 ar  
     8     3    33 1   
     9     4     5 ar  
    10     4    24 ar  
    11     4    34 1   
    12     5    21 ar  
    13     5    35 1   
    14     6     7 ar  
    15     6    11 ar  
    16     6    30 1   
    17     7     8 ar  
    18     7    36 1   
    19     8     9 ar  
    20     8    37 1   
    21     9    10 ar  
    22     9    38 1   
    23    10    11 ar  
    24    10    31 1   
    25    11    39 1   
    26    12    15 2   
    27    12    22 1   
    28    12    40 1   
    29    13    14 ar  
    30    13    19 ar  
    31    13    41 1   
    32    14    16 ar  
    33    15    16 1   
    34    15    42 1   
    35    16    17 ar  
    36    17    18 ar  
    37    17    43 1   
    38    18    19 ar  
    39    18    44 1   
    40    19    23 1   
    41    20    21 1   
    42    20    23 1   
    43    20    45 1   
    44    20    46 1   
    45    22    48 1   
    46    23    30 1   
    47    26    30 2   
    48    27    30 2   
    49    28    31 2   
    50    29    31 2   
    51    31    47 1   
@<TRIPOS>SUBSTRUCTURE
     1 EI9         1 TEMP              0 ****  ****    0 ROOT
