@<TRIPOS>MOLECULE
EI9
   48    51     1     0     0
SMALL
No Charge or Current Charge


@<TRIPOS>ATOM
      1 C1           2.3990     2.1000     1.3580 c          1 EI9       0.570600
      2 C10          1.4410    -2.6160     2.0170 ca         1 EI9      -0.145000
      3 C11          2.6380    -2.8920     2.7010 ca         1 EI9       0.333900
      4 C12          3.6100    -3.7820     0.7960 ca         1 EI9       0.333900
      5 C13          2.4510    -3.5420     0.0380 ca         1 EI9      -0.145000
      6 C14         -1.6290     0.2840    -1.4170 ca         1 EI9      -0.321500
      7 C15         -1.1380     1.5130    -1.9010 ca         1 EI9       0.050000
      8 C16         -1.5230     2.7110    -1.2800 ca         1 EI9      -0.143000
      9 C17         -2.3950     2.6920    -0.1800 ca         1 EI9       0.047000
     10 C18         -2.8870     1.4620     0.3030 ca         1 EI9      -0.353500
     11 C19         -2.5020     0.2540    -0.3130 ca         1 EI9       0.081000
     12 C2           4.3480     3.2050     0.3300 cc         1 EI9      -0.032400
     13 C20          1.3130     0.2110     0.0510 ca         1 EI9      -0.060000
     14 C21          2.3130     1.2010     0.1520 ca         1 EI9      -0.170600
     15 C3           4.2770     2.3860    -0.7740 cd         1 EI9      -0.262200
     16 C4           3.2460     1.3540    -0.8910 ca         1 EI9       0.027200
     17 C5           3.1790     0.5220    -2.0210 ca         1 EI9      -0.118000
     18 C6           2.1790    -0.4620    -2.1150 ca         1 EI9      -0.031000
     19 C7           1.2370    -0.6220    -1.0820 ca         1 EI9       0.198000
     20 C8           0.0670    -2.6470    -0.1440 c3         1 EI9       0.244100
     21 C9           1.3350    -2.9450     0.6520 ca         1 EI9      -0.054300
     22 N1           3.4140     3.0320     1.3450 ns         1 EI9      -0.383100
     23 N2           0.2340    -1.6070    -1.1770 nh         1 EI9      -0.737300
     24 N3           3.7110    -3.4680     2.1090 nb         1 EI9      -0.660000
     25 O1           1.6280     2.0240     2.3030 o          1 EI9      -0.553000
     26 O2          -2.1170    -2.2820    -1.9340 o          1 EI9      -0.523500
     27 O3          -0.5790    -0.9810    -3.5200 o          1 EI9      -0.523500
     28 O4          -4.6380     2.7450     1.8890 o          1 EI9      -0.533000
     29 O5          -4.7650     0.1740     1.7290 o          1 EI9      -0.533000
     30 S1          -1.1000    -1.2530    -2.1760 sy         1 EI9       1.158600
     31 S2          -4.0000     1.4300     1.7220 sy         1 EI9       1.343400
     32 H1           0.6160    -2.1480     2.5460 ha         1 EI9       0.128500
     33 H2           2.7410    -2.6440     3.7570 h4         1 EI9       0.021100
     34 H3           4.4860    -4.2410     0.3380 h4         1 EI9       0.021100
     35 H4           2.4290    -3.8080    -1.0150 ha         1 EI9       0.128500
     36 H5          -0.4520     1.5450    -2.7470 ha         1 EI9       0.145000
     37 H6          -1.1400     3.6590    -1.6510 ha         1 EI9       0.131000
     38 H7          -2.6790     3.6330     0.2910 ha         1 EI9       0.144000
     39 H8          -2.8710    -0.7010     0.0640 ha         1 EI9       0.160000
     40 H9           5.0720     3.9970     0.5100 h4         1 EI9       0.203000
     41 H10          0.5830     0.0930     0.8460 ha         1 EI9       0.138000
     42 H11          5.0050     2.5150    -1.5720 ha         1 EI9       0.204000
     43 H13          3.9000     0.6350    -2.8270 ha         1 EI9       0.128000
     44 H14          2.1350    -1.1060    -2.9880 ha         1 EI9       0.139000
     45 H15         -0.2520    -3.5860    -0.6170 h1         1 EI9       0.068200
     46 H16         -0.7300    -2.3510     0.5520 h1         1 EI9       0.068200
     47 F1          -2.9220     1.3010     2.9370 f          1 EI9      -0.262900
     48 H12          3.4530     3.6260     2.1650 hn         1 EI9       0.330500
@<TRIPOS>BOND
     1     1    14 1   
     2     1    22 1   
     3     1    25 2   
     4     2     3 ar  
     5     2    21 ar  
     6     2    32 1   
     7     3    24 ar  
     8     3    33 1   
     9     4     5 ar  
    10     4    24 ar  
    11     4    34 1   
    12     5    21 ar  
    13     5    35 1   
    14     6     7 ar  
    15     6    11 ar  
    16     6    30 1   
    17     7     8 ar  
    18     7    36 1   
    19     8     9 ar  
    20     8    37 1   
    21     9    10 ar  
    22     9    38 1   
    23    10    11 ar  
    24    10    31 1   
    25    11    39 1   
    26    12    15 2   
    27    12    22 1   
    28    12    40 1   
    29    13    14 ar  
    30    13    19 ar  
    31    13    41 1   
    32    14    16 ar  
    33    15    16 1   
    34    15    42 1   
    35    16    17 ar  
    36    17    18 ar  
    37    17    43 1   
    38    18    19 ar  
    39    18    44 1   
    40    19    23 1   
    41    20    21 1   
    42    20    23 1   
    43    20    45 1   
    44    20    46 1   
    45    22    48 1   
    46    23    30 1   
    47    26    30 2   
    48    27    30 2   
    49    28    31 2   
    50    29    31 2   
    51    31    47 1   
@<TRIPOS>SUBSTRUCTURE
     1 EI9         1 TEMP              0 ****  ****    0 ROOT
