@<TRIPOS>MOLECULE
EIA
   73    77     1     0     0
SMALL
abcg2


@<TRIPOS>ATOM
      1 C10        -21.1340    -0.2610    18.5650 c5         1 EIA      -0.067400
      2 C13        -20.6700    -0.1810    24.9050 c3         1 EIA      -0.065400
      3 C17        -23.2380     2.9430    18.3810 c3         1 EIA      -0.053200
      4 C20        -22.6240     4.6350    16.5590 ce         1 EIA      -0.297200
      5 C21        -22.3310     3.8240    17.5810 c2         1 EIA      -0.128200
      6 C22        -25.2710     5.3840    12.8290 c3         1 EIA      -0.094400
      7 C28        -23.2380     0.7340    15.6490 ce         1 EIA      -0.244000
      8 C12        -22.5760     1.6550    18.8810 c5         1 EIA      -0.052700
      9 C16        -22.9630     0.2330    16.8610 c2         1 EIA      -0.108200
     10 C19        -23.9580     4.8830    15.9560 c          1 EIA       0.611300
     11 C23        -25.0490     6.1850    14.1190 c3         1 EIA       0.108000
     12 C25        -26.1010     4.1010    13.0160 c3         1 EIA      -0.089400
     13 C27        -24.3850     0.3330    14.8740 ce         1 EIA       0.349100
     14 C29        -26.1520     0.7660    13.1990 c          1 EIA       0.589200
     15 C30        -24.8630     1.0730    13.8100 cf         1 EIA      -0.491400
     16 C32        -25.5000     2.8520    12.3470 c5         1 EIA       0.003700
     17 N24        -23.9110     5.7320    14.9030 ns         1 EIA      -0.503900
     18 C1         -21.0500    -0.6070    23.4910 c5         1 EIA      -0.053700
     19 C11        -21.9320     0.7860    17.7700 c5         1 EIA      -0.054500
     20 C14        -21.1820    -1.1310    25.9870 c3         1 EIA      -0.089100
     21 C2         -20.3600    -1.8950    22.9280 c5         1 EIA      -0.059700
     22 C3         -20.3230    -1.6890    21.3790 c5         1 EIA      -0.073400
     23 C33        -24.3600     2.2930    13.2150 c          1 EIA       0.617300
     24 C4         -21.0410    -0.3620    21.1230 c5         1 EIA      -0.066700
     25 C5         -20.7680     0.4300    22.3990 c5         1 EIA      -0.037500
     26 C6         -20.6890     0.4310    19.8770 c5         1 EIA      -0.046700
     27 C7         -21.4150     1.8120    19.8850 c5         1 EIA      -0.027500
     28 C8         -21.8370     2.3150    21.2380 c2         1 EIA      -0.220200
     29 C9         -21.5370     1.7130    22.3890 c2         1 EIA      -0.200200
     30 N31        -26.4490     1.7440    12.3220 ns         1 EIA      -0.484900
     31 O18        -25.0150     4.3960    16.3750 o          1 EIA      -0.624100
     32 O26        -25.0520    -0.7440    15.2650 oh         1 EIA      -0.542100
     33 O34        -26.8570    -0.2300    13.4610 o          1 EIA      -0.616000
     34 O35        -23.2750     2.8400    13.3440 o          1 EIA      -0.546100
     35 H10B       -21.7850    -1.1080    18.7970 hc         1 EIA       0.049700
     36 H10A       -20.2950    -0.6500    17.9890 hc         1 EIA       0.049700
     37 H13A       -19.5850    -0.0710    24.9840 hc         1 EIA       0.039200
     38 H13B       -21.0870     0.8140    25.0900 hc         1 EIA       0.039200
     39 H17B       -23.5910     3.5100    19.2510 hc         1 EIA       0.076200
     40 H17A       -24.1290     2.7080    17.8030 hc         1 EIA       0.076200
     41 HC20       -21.8050     5.1890    16.1120 ha         1 EIA       0.173000
     42 HC21       -21.2860     3.8070    17.8750 ha         1 EIA       0.165000
     43 H22B       -24.2930     5.1470    12.4060 hc         1 EIA       0.050700
     44 H22A       -25.7710     6.0320    12.1070 hc         1 EIA       0.050700
     45 HC28       -22.6650     1.5570    15.2440 ha         1 EIA       0.219000
     46 HC12       -23.3550     1.0540    19.3630 hc         1 EIA       0.061700
     47 HC16       -23.5810    -0.5670    17.2600 ha         1 EIA       0.188000
     48 H23B       -24.8660     7.2310    13.8690 h1         1 EIA       0.054700
     49 H23A       -25.9340     6.1470    14.7540 h1         1 EIA       0.054700
     50 H25B       -27.1020     4.2450    12.6030 hc         1 EIA       0.059700
     51 H25A       -26.2300     3.8820    14.0780 hc         1 EIA       0.059700
     52 HC32       -25.1410     3.0820    11.3420 h1         1 EIA       0.082700
     53 HN24       -23.0020     6.0360    14.5920 hn         1 EIA       0.310500
     54 HC1        -22.1320    -0.7890    23.4840 hc         1 EIA       0.047700
     55 HC11       -21.2480     1.4220    17.2010 hc         1 EIA       0.062700
     56 H14B       -20.9010    -0.7840    26.9840 hc         1 EIA       0.032367
     57 H14C       -22.2720    -1.2030    25.9520 hc         1 EIA       0.032367
     58 H14A       -20.7820    -2.1400    25.8620 hc         1 EIA       0.032367
     59 HC2        -20.9750    -2.7640    23.1710 hc         1 EIA       0.048700
     60 HC3A       -20.7750    -2.5220    20.8400 hc         1 EIA       0.043200
     61 HC3B       -19.2840    -1.6130    21.0440 hc         1 EIA       0.043200
     62 HC4        -22.1220    -0.5510    21.1020 hc         1 EIA       0.052700
     63 HC5        -19.6930     0.6640    22.4380 hc         1 EIA       0.058700
     64 HC6        -19.6080     0.5930    19.8710 hc         1 EIA       0.052700
     65 HC7        -20.7220     2.5510    19.4670 hc         1 EIA       0.051700
     66 HC8        -22.3950     3.2470    21.2510 ha         1 EIA       0.174000
     67 HC9        -21.8420     2.1580    23.3310 ha         1 EIA       0.178000
     68 HN31       -27.3540     1.8110    11.8800 hn         1 EIA       0.333500
     69 HO26       -25.8590    -0.8230    14.6740 ho         1 EIA       0.540000
     70 C15        -18.9520    -2.1480    23.4690 c3         1 EIA      -0.085100
     71 H15C       -18.9480    -2.3530    24.5410 hc         1 EIA       0.033033
     72 H15B       -18.5100    -3.0110    22.9650 hc         1 EIA       0.033033
     73 H15A       -18.2990    -1.2920    23.2850 hc         1 EIA       0.033033
@<TRIPOS>BOND
     1     1    19 1   
     2     1    26 1   
     3     1    35 1   
     4     1    36 1   
     5     2    18 1   
     6     2    20 1   
     7     2    37 1   
     8     2    38 1   
     9     3     5 1   
    10     3     8 1   
    11     3    39 1   
    12     3    40 1   
    13     4     5 2   
    14     4    10 1   
    15     4    41 1   
    16     5    42 1   
    17     6    11 1   
    18     6    12 1   
    19     6    43 1   
    20     6    44 1   
    21     7     9 2   
    22     7    13 1   
    23     7    45 1   
    24     8    19 1   
    25     8    27 1   
    26     8    46 1   
    27     9    19 1   
    28     9    47 1   
    29    10    17 1   
    30    10    31 2   
    31    11    17 1   
    32    11    48 1   
    33    11    49 1   
    34    12    16 1   
    35    12    50 1   
    36    12    51 1   
    37    13    15 2   
    38    13    32 1   
    39    14    15 1   
    40    14    30 1   
    41    14    33 2   
    42    15    23 1   
    43    16    23 1   
    44    16    30 1   
    45    16    52 1   
    46    17    53 1   
    47    18    21 1   
    48    18    25 1   
    49    18    54 1   
    50    19    55 1   
    51    20    56 1   
    52    20    57 1   
    53    20    58 1   
    54    21    22 1   
    55    21    59 1   
    56    21    70 1   
    57    22    24 1   
    58    22    60 1   
    59    22    61 1   
    60    23    34 2   
    61    24    25 1   
    62    24    26 1   
    63    24    62 1   
    64    25    29 1   
    65    25    63 1   
    66    26    27 1   
    67    26    64 1   
    68    27    28 1   
    69    27    65 1   
    70    28    29 2   
    71    28    66 1   
    72    29    67 1   
    73    30    68 1   
    74    32    69 1   
    75    70    71 1   
    76    70    72 1   
    77    70    73 1   
@<TRIPOS>SUBSTRUCTURE
     1 EIA         1 TEMP              0 ****  ****    0 ROOT
