@<TRIPOS>MOLECULE
EIA
   73    77     1     0     0
SMALL
No Charge or Current Charge


@<TRIPOS>ATOM
      1 C10        -21.1550    -0.4910    18.6280 c5         1 EIA      -0.067400
      2 C13        -20.6990    -0.0290    24.9180 c3         1 EIA      -0.065400
      3 C17        -23.0880     2.8560    18.3410 c3         1 EIA      -0.053200
      4 C20        -22.6490     4.6510    16.5210 ce         1 EIA      -0.297200
      5 C21        -22.2370     3.7390    17.4380 c2         1 EIA      -0.128200
      6 C22        -25.6180     5.5530    12.9360 c3         1 EIA      -0.094400
      7 C28        -23.2270     0.7390    15.7790 ce         1 EIA      -0.244000
      8 C12        -22.4020     1.5570    18.8610 c5         1 EIA      -0.052700
      9 C16        -22.9120     0.0400    16.8990 c2         1 EIA      -0.108200
     10 C19        -24.0530     4.9960    16.1430 c          1 EIA       0.611300
     11 C23        -25.3620     6.1730    14.3290 c3         1 EIA       0.108000
     12 C25        -26.2560     4.1370    12.9470 c3         1 EIA      -0.089400
     13 C27        -24.3200     0.3980    14.8570 ce         1 EIA       0.349100
     14 C29        -25.9300     0.7970    13.0170 c          1 EIA       0.589200
     15 C30        -24.8010     1.1660    13.8450 cf         1 EIA      -0.491400
     16 C32        -25.3820     2.9940    12.3630 c5         1 EIA       0.003700
     17 N24        -24.1340     5.6760    14.9510 ns         1 EIA      -0.503900
     18 C1         -21.0760    -0.4850    23.4810 c5         1 EIA      -0.053700
     19 C11        -21.7950     0.6320    17.7610 c5         1 EIA      -0.054500
     20 C14        -21.2610    -0.9280    26.0400 c3         1 EIA      -0.089100
     21 C2         -20.4890    -1.8730    22.9960 c5         1 EIA      -0.059700
     22 C3         -20.5390    -1.7820    21.4220 c5         1 EIA      -0.073400
     23 C33        -24.3170     2.4780    13.3830 c          1 EIA       0.617300
     24 C4         -21.1640    -0.3840    21.1530 c5         1 EIA      -0.066700
     25 C5         -20.6000     0.4380    22.3270 c5         1 EIA      -0.037500
     26 C6         -20.5610     0.2770    19.8650 c5         1 EIA      -0.046700
     27 C7         -21.1380     1.7470    19.7590 c5         1 EIA      -0.027500
     28 C8         -21.5370     2.3860    21.1090 c2         1 EIA      -0.220200
     29 C9         -21.2950     1.7910    22.2950 c2         1 EIA      -0.200200
     30 N31        -26.1960     1.7860    12.1280 ns         1 EIA      -0.484900
     31 O18        -25.0400     4.6910    16.7950 o          1 EIA      -0.624100
     32 O26        -24.9210    -0.7830    15.1010 oh         1 EIA      -0.542100
     33 O34        -26.5470    -0.2500    13.1020 o          1 EIA      -0.616000
     34 O35        -23.2600     3.0060    13.6930 o          1 EIA      -0.546100
     35 H10B       -21.9020    -1.2380    18.9240 hc         1 EIA       0.049700
     36 H10A       -20.3800    -1.0340    18.0750 hc         1 EIA       0.049700
     37 H13A       -19.6100     0.0390    25.0250 hc         1 EIA       0.039200
     38 H13B       -21.0760     0.9860    25.0910 hc         1 EIA       0.039200
     39 H17B       -23.4420     3.4500    19.1910 hc         1 EIA       0.076200
     40 H17A       -23.9970     2.5610    17.8050 hc         1 EIA       0.076200
     41 HC20       -21.8900     5.1590    15.9310 ha         1 EIA       0.173000
     42 HC21       -21.1640     3.5960    17.5640 ha         1 EIA       0.165000
     43 H22B       -24.6890     5.5560    12.3530 hc         1 EIA       0.050700
     44 H22A       -26.3040     6.2230    12.4040 hc         1 EIA       0.050700
     45 HC28       -22.6710     1.6430    15.5500 ha         1 EIA       0.219000
     46 HC12       -23.1800     1.0210    19.4190 hc         1 EIA       0.061700
     47 HC16       -23.4540    -0.8620    17.1910 ha         1 EIA       0.188000
     48 H23B       -25.2530     7.2600    14.2130 h1         1 EIA       0.054700
     49 H23A       -26.2270     6.0000    14.9840 h1         1 EIA       0.054700
     50 H25B       -27.1790     4.1970    12.3560 hc         1 EIA       0.059700
     51 H25A       -26.5810     3.8780    13.9630 hc         1 EIA       0.059700
     52 HC32       -24.8700     3.3240    11.4490 h1         1 EIA       0.082700
     53 HN24       -23.2590     5.8360    14.4690 hn         1 EIA       0.310500
     54 HC1        -22.1730    -0.5360    23.4820 hc         1 EIA       0.047700
     55 HC11       -21.0330     1.1420    17.1580 hc         1 EIA       0.062700
     56 H14B       -20.9610    -0.5430    27.0220 hc         1 EIA       0.032367
     57 H14C       -22.3570    -0.9500    26.0030 hc         1 EIA       0.032367
     58 H14A       -20.8940    -1.9560    25.9500 hc         1 EIA       0.032367
     59 HC2        -21.1310    -2.6880    23.3500 hc         1 EIA       0.048700
     60 HC3A       -21.1430    -2.5860    20.9860 hc         1 EIA       0.043200
     61 HC3B       -19.5370    -1.8700    20.9840 hc         1 EIA       0.043200
     62 HC4        -22.2610    -0.4180    21.1480 hc         1 EIA       0.052700
     63 HC5        -19.5080     0.5490    22.3090 hc         1 EIA       0.058700
     64 HC6        -19.4640     0.2780    19.8650 hc         1 EIA       0.052700
     65 HC7        -20.3960     2.3850    19.2670 hc         1 EIA       0.051700
     66 HC8        -22.0230     3.3630    21.1100 ha         1 EIA       0.174000
     67 HC9        -21.5910     2.2900    23.2190 ha         1 EIA       0.178000
     68 HN31       -26.9760     1.6850    11.4880 hn         1 EIA       0.333500
     69 HO26       -25.6280    -0.8140    14.4060 ho         1 EIA       0.540000
     70 C15        -19.0560    -2.2130    23.4880 c3         1 EIA      -0.085100
     71 H15C       -19.0190    -2.3430    24.5750 hc         1 EIA       0.033033
     72 H15B       -18.7040    -3.1500    23.0400 hc         1 EIA       0.033033
     73 H15A       -18.3410    -1.4270    23.2200 hc         1 EIA       0.033033
@<TRIPOS>BOND
     1     1    19 1   
     2     1    26 1   
     3     1    35 1   
     4     1    36 1   
     5     2    18 1   
     6     2    20 1   
     7     2    37 1   
     8     2    38 1   
     9     3     5 1   
    10     3     8 1   
    11     3    39 1   
    12     3    40 1   
    13     4     5 2   
    14     4    10 1   
    15     4    41 1   
    16     5    42 1   
    17     6    11 1   
    18     6    12 1   
    19     6    43 1   
    20     6    44 1   
    21     7     9 2   
    22     7    13 1   
    23     7    45 1   
    24     8    19 1   
    25     8    27 1   
    26     8    46 1   
    27     9    19 1   
    28     9    47 1   
    29    10    17 1   
    30    10    31 2   
    31    11    17 1   
    32    11    48 1   
    33    11    49 1   
    34    12    16 1   
    35    12    50 1   
    36    12    51 1   
    37    13    15 2   
    38    13    32 1   
    39    14    15 1   
    40    14    30 1   
    41    14    33 2   
    42    15    23 1   
    43    16    23 1   
    44    16    30 1   
    45    16    52 1   
    46    17    53 1   
    47    18    21 1   
    48    18    25 1   
    49    18    54 1   
    50    19    55 1   
    51    20    56 1   
    52    20    57 1   
    53    20    58 1   
    54    21    22 1   
    55    21    59 1   
    56    21    70 1   
    57    22    24 1   
    58    22    60 1   
    59    22    61 1   
    60    23    34 2   
    61    24    25 1   
    62    24    26 1   
    63    24    62 1   
    64    25    29 1   
    65    25    63 1   
    66    26    27 1   
    67    26    64 1   
    68    27    28 1   
    69    27    65 1   
    70    28    29 2   
    71    28    66 1   
    72    29    67 1   
    73    30    68 1   
    74    32    69 1   
    75    70    71 1   
    76    70    72 1   
    77    70    73 1   
@<TRIPOS>SUBSTRUCTURE
     1 EIA         1 TEMP              0 ****  ****    0 ROOT
