@<TRIPOS>MOLECULE
EIC
   51    50     1     0     0
SMALL
No Charge or Current Charge


@<TRIPOS>ATOM
      1 C1           2.3380     0.1780     6.8440 c          1 EIC       0.717000
      2 C2           1.3470    -0.6630     6.0170 c3         1 EIC      -0.203400
      3 C3           0.8220     0.1590     4.8150 c3         1 EIC      -0.054400
      4 C4          -0.1820    -0.6210     3.9360 c3         1 EIC      -0.079400
      5 C5          -0.7040     0.2020     2.7380 c3         1 EIC      -0.074400
      6 C6          -1.7080    -0.5790     1.8600 c3         1 EIC      -0.076400
      7 C7          -2.2300     0.2440     0.6620 c3         1 EIC      -0.073400
      8 C8          -3.2310    -0.5340    -0.2170 c3         1 EIC      -0.048200
      9 C9          -3.7260     0.2920    -1.3900 c2         1 EIC      -0.202200
     10 C10         -3.1480     0.4150    -2.5980 c2         1 EIC      -0.229200
     11 C11         -1.8500    -0.2140    -3.0690 c3         1 EIC      -0.010000
     12 C12         -2.0770    -1.0140    -4.3380 c2         1 EIC      -0.202200
     13 C13         -1.4290    -0.8900    -5.5110 c2         1 EIC      -0.229200
     14 C14         -0.3340     0.1030    -5.8530 c3         1 EIC      -0.040200
     15 C15          1.0650    -0.4140    -5.4590 c3         1 EIC      -0.073400
     16 C16          2.1970     0.5830    -5.7910 c3         1 EIC      -0.076400
     17 C17          3.5960     0.0640    -5.3930 c3         1 EIC      -0.075400
     18 C18          4.7260     1.0590    -5.7230 c3         1 EIC      -0.088100
     19 O1           3.5190     0.1470     6.5350 o          1 EIC      -0.743500
     20 O2           1.8930     0.8750     7.7430 o          1 EIC      -0.743500
     21 H21          0.4640    -0.9150     6.6170 hc         1 EIC       0.014700
     22 H22          1.8520    -1.5360     5.5850 hc         1 EIC       0.014700
     23 H31          1.6710     0.4760     4.1960 hc         1 EIC       0.038200
     24 H32          0.3400     1.0730     5.1860 hc         1 EIC       0.038200
     25 H41         -1.0320    -0.9360     4.5530 hc         1 EIC       0.023700
     26 H42          0.3000    -1.5330     3.5630 hc         1 EIC       0.023700
     27 H51          0.1450     0.5170     2.1190 hc         1 EIC       0.034200
     28 H52         -1.1860     1.1140     3.1100 hc         1 EIC       0.034200
     29 H61         -2.5580    -0.8940     2.4790 hc         1 EIC       0.032200
     30 H62         -1.2260    -1.4910     1.4880 hc         1 EIC       0.032200
     31 H71         -1.3810     0.5600     0.0440 hc         1 EIC       0.038200
     32 H72         -2.7130     1.1570     1.0330 hc         1 EIC       0.038200
     33 H81         -4.0840    -0.8480     0.3970 hc         1 EIC       0.043700
     34 H82         -2.7590    -1.4590    -0.5680 hc         1 EIC       0.043700
     35 H91         -4.6630     0.8160    -1.1890 ha         1 EIC       0.164000
     36 H1O1        -3.6210     1.0440    -3.3550 ha         1 EIC       0.162000
     37 H111        -1.4230    -0.8700    -2.3030 hc         1 EIC       0.051200
     38 H112        -1.1040     0.5740    -3.2230 hc         1 EIC       0.051200
     39 H121        -2.8520    -1.7750    -4.2340 ha         1 EIC       0.168000
     40 H131        -1.6950    -1.5480    -6.3400 ha         1 EIC       0.161000
     41 H141        -0.5150     1.0650    -5.3570 hc         1 EIC       0.043700
     42 H142        -0.3510     0.3140    -6.9300 hc         1 EIC       0.043700
     43 H151         1.2550    -1.3630    -5.9750 hc         1 EIC       0.038700
     44 H152         1.0780    -0.6280    -4.3830 hc         1 EIC       0.038700
     45 H161         2.0050     1.5320    -5.2740 hc         1 EIC       0.036700
     46 H162         2.1850     0.7970    -6.8670 hc         1 EIC       0.036700
     47 H171         3.7930    -0.8830    -5.9090 hc         1 EIC       0.036700
     48 H172         3.6130    -0.1490    -4.3170 hc         1 EIC       0.036700
     49 H181         5.6970     0.6470    -5.4230 hc         1 EIC       0.030033
     50 H182         4.7580     1.2650    -6.8000 hc         1 EIC       0.030033
     51 H183         4.5760     2.0070    -5.1920 hc         1 EIC       0.030033
@<TRIPOS>BOND
     1     1     2 1   
     2     1    19 1   
     3     1    20 1   
     4     2     3 1   
     5     2    21 1   
     6     2    22 1   
     7     3     4 1   
     8     3    23 1   
     9     3    24 1   
    10     4     5 1   
    11     4    25 1   
    12     4    26 1   
    13     5     6 1   
    14     5    27 1   
    15     5    28 1   
    16     6     7 1   
    17     6    29 1   
    18     6    30 1   
    19     7     8 1   
    20     7    31 1   
    21     7    32 1   
    22     8     9 1   
    23     8    33 1   
    24     8    34 1   
    25     9    10 2   
    26     9    35 1   
    27    10    11 1   
    28    10    36 1   
    29    11    12 1   
    30    11    37 1   
    31    11    38 1   
    32    12    13 2   
    33    12    39 1   
    34    13    14 1   
    35    13    40 1   
    36    14    15 1   
    37    14    41 1   
    38    14    42 1   
    39    15    16 1   
    40    15    43 1   
    41    15    44 1   
    42    16    17 1   
    43    16    45 1   
    44    16    46 1   
    45    17    18 1   
    46    17    47 1   
    47    17    48 1   
    48    18    49 1   
    49    18    50 1   
    50    18    51 1   
@<TRIPOS>SUBSTRUCTURE
     1 EIC         1 TEMP              0 ****  ****    0 ROOT
