@<TRIPOS>MOLECULE
EIC
   51    50     1     0     0
SMALL
abcg2


@<TRIPOS>ATOM
      1 C1           0.0960    -0.3320     8.8770 c          1 EIC       0.717000
      2 C2          -0.0870    -0.9430     7.4770 c3         1 EIC      -0.203400
      3 C3          -0.5000     0.0160     6.3720 c3         1 EIC      -0.054400
      4 C4          -0.6530    -0.6750     5.0220 c3         1 EIC      -0.079400
      5 C5          -1.0580     0.2700     3.8980 c3         1 EIC      -0.074400
      6 C6          -1.2220    -0.4330     2.5560 c3         1 EIC      -0.076400
      7 C7          -1.6100     0.5100     1.4240 c3         1 EIC      -0.073400
      8 C8          -1.8060    -0.2130     0.0910 c3         1 EIC      -0.048200
      9 C9          -2.2330     0.7170    -1.0000 c2         1 EIC      -0.202200
     10 C10         -1.6690     0.8860    -2.1960 c2         1 EIC      -0.229200
     11 C11         -0.4930     0.1420    -2.7610 c3         1 EIC      -0.010000
     12 C12         -0.9630    -0.8340    -3.8020 c2         1 EIC      -0.202200
     13 C13         -0.7400    -0.7940    -5.1150 c2         1 EIC      -0.229200
     14 C14          0.0840     0.1910    -5.8830 c3         1 EIC      -0.040200
     15 C15          1.1840    -0.5000    -6.6900 c3         1 EIC      -0.073400
     16 C16          2.0250     0.4700    -7.5110 c3         1 EIC      -0.076400
     17 C17          3.0820    -0.2290    -8.3590 c3         1 EIC      -0.075400
     18 C18          3.9340     0.7430    -9.1650 c3         1 EIC      -0.088100
     19 O1          -0.0960     0.8920     9.0120 o          1 EIC      -0.743500
     20 O2           0.4330    -1.1290     9.7800 o          1 EIC      -0.743500
     21 H21         -0.8220    -1.7540     7.5530 hc         1 EIC       0.014700
     22 H22          0.8500    -1.4390     7.1980 hc         1 EIC       0.014700
     23 H31          0.2360     0.8200     6.2850 hc         1 EIC       0.038200
     24 H32         -1.4440     0.5020     6.6380 hc         1 EIC       0.038200
     25 H41         -1.3960    -1.4770     5.1060 hc         1 EIC       0.023700
     26 H42          0.2890    -1.1670     4.7560 hc         1 EIC       0.023700
     27 H51         -0.3100     1.0650     3.8040 hc         1 EIC       0.034200
     28 H52         -1.9980     0.7670     4.1630 hc         1 EIC       0.034200
     29 H61         -1.9790    -1.2190     2.6490 hc         1 EIC       0.032200
     30 H62         -0.2870    -0.9420     2.2970 hc         1 EIC       0.032200
     31 H71         -0.8420     1.2810     1.3090 hc         1 EIC       0.038200
     32 H72         -2.5340     1.0350     1.6890 hc         1 EIC       0.038200
     33 H81         -2.5720    -0.9850     0.2230 hc         1 EIC       0.043700
     34 H82         -0.8870    -0.7390    -0.1790 hc         1 EIC       0.043700
     35 H91         -3.1070     1.3230    -0.7730 ha         1 EIC       0.164000
     36 H1O1        -2.1220     1.6050    -2.8730 ha         1 EIC       0.162000
     37 H111         0.0380    -0.3980    -1.9740 hc         1 EIC       0.051200
     38 H112         0.2180     0.8530    -3.1880 hc         1 EIC       0.051200
     39 H121        -1.5840    -1.6390    -3.4200 ha         1 EIC       0.168000
     40 H131        -1.1880    -1.5800    -5.7180 ha         1 EIC       0.161000
     41 H141         0.5270     0.9410    -5.2240 hc         1 EIC       0.043700
     42 H142        -0.5650     0.7390    -6.5760 hc         1 EIC       0.043700
     43 H151         0.7290    -1.2400    -7.3560 hc         1 EIC       0.038700
     44 H152         1.8330    -1.0600    -6.0100 hc         1 EIC       0.038700
     45 H161         2.5120     1.1870    -6.8410 hc         1 EIC       0.036700
     46 H162         1.3700     1.0590    -8.1620 hc         1 EIC       0.036700
     47 H171         2.5900    -0.9340    -9.0370 hc         1 EIC       0.036700
     48 H172         3.7270    -0.8300    -7.7120 hc         1 EIC       0.036700
     49 H181         4.6660     0.2190    -9.7800 hc         1 EIC       0.030033
     50 H182         3.3180     1.3510    -9.8290 hc         1 EIC       0.030033
     51 H183         4.4800     1.4230    -8.5090 hc         1 EIC       0.030033
@<TRIPOS>BOND
     1     1     2 1   
     2     1    19 1   
     3     1    20 1   
     4     2     3 1   
     5     2    21 1   
     6     2    22 1   
     7     3     4 1   
     8     3    23 1   
     9     3    24 1   
    10     4     5 1   
    11     4    25 1   
    12     4    26 1   
    13     5     6 1   
    14     5    27 1   
    15     5    28 1   
    16     6     7 1   
    17     6    29 1   
    18     6    30 1   
    19     7     8 1   
    20     7    31 1   
    21     7    32 1   
    22     8     9 1   
    23     8    33 1   
    24     8    34 1   
    25     9    10 2   
    26     9    35 1   
    27    10    11 1   
    28    10    36 1   
    29    11    12 1   
    30    11    37 1   
    31    11    38 1   
    32    12    13 2   
    33    12    39 1   
    34    13    14 1   
    35    13    40 1   
    36    14    15 1   
    37    14    41 1   
    38    14    42 1   
    39    15    16 1   
    40    15    43 1   
    41    15    44 1   
    42    16    17 1   
    43    16    45 1   
    44    16    46 1   
    45    17    18 1   
    46    17    47 1   
    47    17    48 1   
    48    18    49 1   
    49    18    50 1   
    50    18    51 1   
@<TRIPOS>SUBSTRUCTURE
     1 EIC         1 TEMP              0 ****  ****    0 ROOT
