@<TRIPOS>MOLECULE
EID
   62    64     1     0     0
SMALL
abcg2


@<TRIPOS>ATOM
      1 C01        131.2990   164.3720   149.1070 c3         1 EID      -0.077100
      2 C02        130.0780   163.5130   149.3880 c3         1 EID      -0.149400
      3 C03        129.5450   163.6860   150.7950 c          1 EID       0.608100
      4 C06        127.8870   162.0120   150.2500 ca         1 EID      -0.053000
      5 C07        126.8300   162.5180   149.5010 ca         1 EID      -0.110000
      6 C08        126.1920   161.7150   148.5660 ca         1 EID      -0.109000
      7 C09        126.6060   160.4040   148.3730 ca         1 EID      -0.106000
      8 C10        127.6630   159.8990   149.1190 ca         1 EID      -0.109000
      9 C11        128.3010   160.7000   150.0550 ca         1 EID      -0.110000
     10 C12        128.0500   162.9960   152.5840 c6         1 EID       0.104400
     11 C13        126.7810   162.1470   152.7810 c6         1 EID      -0.086400
     12 C14        126.3270   162.0930   154.2300 c6         1 EID       0.167800
     13 C17        127.8080   160.3870   157.2320 c3         1 EID      -0.032100
     14 C18        127.2440   160.1160   158.5980 ca         1 EID      -0.081300
     15 C19        126.4550   158.9940   158.8380 ca         1 EID      -0.107000
     16 C20        125.9160   158.7560   160.0960 ca         1 EID      -0.110000
     17 C21        126.1570   159.6410   161.1370 ca         1 EID      -0.111000
     18 C22        126.9390   160.7670   160.9100 ca         1 EID      -0.110000
     19 C23        127.4750   161.0000   159.6510 ca         1 EID      -0.107000
     20 C24        128.5250   162.4020   155.0360 c6         1 EID       0.160800
     21 C25        129.1120   162.5410   153.6260 c6         1 EID      -0.049700
     22 C26        129.7830   161.2280   153.2240 c3         1 EID      -0.079100
     23 C27        127.6170   164.4720   152.7080 c          1 EID       0.595100
     24 C30        127.5580   166.4050   154.0390 c3         1 EID       0.152900
     25 N05        128.5490   162.8480   151.1990 n          1 EID      -0.244400
     26 N15        127.3640   161.5330   155.0710 n3         1 EID      -0.718600
     27 O04        129.9880   164.5370   151.5490 o          1 EID      -0.597100
     28 O28        126.9440   165.0140   151.8670 o          1 EID      -0.502000
     29 O29        127.9790   165.0580   153.8310 os         1 EID      -0.425100
     30 H1         131.6380   164.2040   148.0860 hc         1 EID       0.041367
     31 H2         131.0820   165.4340   149.2130 hc         1 EID       0.041367
     32 H3         132.1250   164.1300   149.7740 hc         1 EID       0.041367
     33 H4         129.2800   163.7500   148.6790 hc         1 EID       0.063200
     34 H5         130.3090   162.4590   149.2170 hc         1 EID       0.063200
     35 H6         126.5090   163.5390   149.6560 ha         1 EID       0.132500
     36 H7         125.3700   162.1160   147.9870 ha         1 EID       0.117500
     37 H8         126.1090   159.7780   147.6440 ha         1 EID       0.116000
     38 H9         127.9930   158.8790   148.9730 ha         1 EID       0.117500
     39 H10        129.1270   160.3080   150.6340 ha         1 EID       0.132500
     40 H11        125.9660   162.5230   152.1600 hc         1 EID       0.067700
     41 H12        126.9750   161.1250   152.4540 hc         1 EID       0.067700
     42 H13        126.0010   163.0890   154.5790 h1         1 EID       0.035700
     43 H14        125.4440   161.4510   154.2790 h1         1 EID       0.035700
     44 H15        126.7410   162.2510   156.9690 h1         1 EID       0.034200
     45 H16        125.9050   160.8290   156.3570 h1         1 EID       0.034200
     46 H17        127.9390   159.4510   156.6840 hc         1 EID       0.054200
     47 H18        128.7970   160.8370   157.3370 hc         1 EID       0.054200
     48 H19        126.2650   158.2930   158.0330 ha         1 EID       0.111000
     49 H20        125.3100   157.8740   160.2640 ha         1 EID       0.111000
     50 H21        125.7430   159.4550   162.1200 ha         1 EID       0.112000
     51 H22        127.1350   161.4640   161.7150 ha         1 EID       0.111000
     52 H23        128.0900   161.8770   159.4840 ha         1 EID       0.111000
     53 H24        129.3130   161.9840   155.6660 h1         1 EID       0.042200
     54 H25        128.2870   163.3860   155.4650 h1         1 EID       0.042200
     55 H26        129.8930   163.2980   153.6950 hc         1 EID       0.081700
     56 H27        130.4640   160.9160   154.0170 hc         1 EID       0.035367
     57 H28        129.0670   160.4200   153.0780 hc         1 EID       0.035367
     58 H29        130.3780   161.3260   152.3170 hc         1 EID       0.035367
     59 H30        127.9420   166.6900   155.0130 h1         1 EID       0.047700
     60 H31        127.9680   167.0700   153.2790 h1         1 EID       0.047700
     61 H32        126.4710   166.4880   154.0400 h1         1 EID       0.047700
     62 C16        126.8880   161.3030   156.4220 c3         1 EID       0.169800
@<TRIPOS>BOND
     1     1     2 1   
     2     1    30 1   
     3     1    31 1   
     4     1    32 1   
     5     2     3 1   
     6     2    33 1   
     7     2    34 1   
     8     3    25 1   
     9     3    27 2   
    10     4     5 ar  
    11     4     9 ar  
    12     4    25 1   
    13     5     6 ar  
    14     5    35 1   
    15     6     7 ar  
    16     6    36 1   
    17     7     8 ar  
    18     7    37 1   
    19     8     9 ar  
    20     8    38 1   
    21     9    39 1   
    22    10    11 1   
    23    10    21 1   
    24    10    23 1   
    25    10    25 1   
    26    11    12 1   
    27    11    40 1   
    28    11    41 1   
    29    12    26 1   
    30    12    42 1   
    31    12    43 1   
    32    13    14 1   
    33    13    46 1   
    34    13    47 1   
    35    13    62 1   
    36    14    15 ar  
    37    14    19 ar  
    38    15    16 ar  
    39    15    48 1   
    40    16    17 ar  
    41    16    49 1   
    42    17    18 ar  
    43    17    50 1   
    44    18    19 ar  
    45    18    51 1   
    46    19    52 1   
    47    20    21 1   
    48    20    26 1   
    49    20    53 1   
    50    20    54 1   
    51    21    22 1   
    52    21    55 1   
    53    22    56 1   
    54    22    57 1   
    55    22    58 1   
    56    23    28 2   
    57    23    29 1   
    58    24    29 1   
    59    24    59 1   
    60    24    60 1   
    61    24    61 1   
    62    26    62 1   
    63    44    62 1   
    64    45    62 1   
@<TRIPOS>SUBSTRUCTURE
     1 EID         1 TEMP              0 ****  ****    0 ROOT
