@<TRIPOS>MOLECULE
EID
   62    64     1     0     0
SMALL
No Charge or Current Charge


@<TRIPOS>ATOM
      1 C01        131.3010   164.3910   148.7230 c3         1 EID      -0.077100
      2 C02        130.1840   163.4320   149.1940 c3         1 EID      -0.149400
      3 C03        129.7480   163.5730   150.6710 c          1 EID       0.608100
      4 C06        127.8820   161.9890   150.2090 ca         1 EID      -0.053000
      5 C07        126.7320   162.5220   149.5940 ca         1 EID      -0.110000
      6 C08        126.0490   161.7900   148.6080 ca         1 EID      -0.109000
      7 C09        126.5350   160.5360   148.2010 ca         1 EID      -0.106000
      8 C10        127.7140   160.0250   148.7690 ca         1 EID      -0.109000
      9 C11        128.3960   160.7590   149.7550 ca         1 EID      -0.110000
     10 C12        128.1010   163.0010   152.5380 c6         1 EID       0.104400
     11 C13        126.8100   162.1340   152.8010 c6         1 EID      -0.086400
     12 C14        126.3420   162.0950   154.2720 c6         1 EID       0.167800
     13 C17        127.8430   160.5100   157.4510 c3         1 EID      -0.032100
     14 C18        127.1960   160.1940   158.7930 ca         1 EID      -0.081300
     15 C19        126.5770   158.9480   159.0100 ca         1 EID      -0.107000
     16 C20        125.9760   158.6600   160.2480 ca         1 EID      -0.110000
     17 C21        125.9900   159.6180   161.2770 ca         1 EID      -0.111000
     18 C22        126.6050   160.8630   161.0650 ca         1 EID      -0.110000
     19 C23        127.2060   161.1510   159.8270 ca         1 EID      -0.107000
     20 C24        128.6360   162.3240   155.0590 c6         1 EID       0.160800
     21 C25        129.1690   162.4620   153.5970 c6         1 EID      -0.049700
     22 C26        129.8490   161.1160   153.1730 c3         1 EID      -0.079100
     23 C27        127.7080   164.5180   152.7470 c          1 EID       0.595100
     24 C30        127.3560   166.3360   154.3000 c3         1 EID       0.152900
     25 N05        128.6440   162.7930   151.1290 n          1 EID      -0.244400
     26 N15        127.3890   161.5190   155.1440 n3         1 EID      -0.718600
     27 O04        130.3640   164.3230   151.4220 o          1 EID      -0.597100
     28 O28        127.4910   165.2720   151.8030 o          1 EID      -0.502000
     29 O29        127.6850   164.9580   154.0470 os         1 EID      -0.425100
     30 H1         131.5340   164.2170   147.6660 hc         1 EID       0.041367
     31 H2         130.9880   165.4360   148.8380 hc         1 EID       0.041367
     32 H3         132.2180   164.2370   149.3060 hc         1 EID       0.041367
     33 H4         129.2950   163.5160   148.5590 hc         1 EID       0.063200
     34 H5         130.4690   162.3880   149.0280 hc         1 EID       0.063200
     35 H6         126.3650   163.5050   149.8820 ha         1 EID       0.132500
     36 H7         125.1510   162.1990   148.1510 ha         1 EID       0.117500
     37 H8         126.0100   159.9700   147.4350 ha         1 EID       0.116000
     38 H9         128.1050   159.0650   148.4390 ha         1 EID       0.117500
     39 H10        129.3170   160.3630   150.1760 ha         1 EID       0.132500
     40 H11        125.9770   162.5130   152.1950 hc         1 EID       0.067700
     41 H12        126.9700   161.0970   152.4790 hc         1 EID       0.067700
     42 H13        126.0610   163.1020   154.6100 h1         1 EID       0.035700
     43 H14        125.4320   161.4790   154.3250 h1         1 EID       0.035700
     44 H15        126.7020   162.2940   157.0040 h1         1 EID       0.034200
     45 H16        125.9420   160.7840   156.5000 h1         1 EID       0.034200
     46 H17        128.1270   159.5840   156.9370 hc         1 EID       0.054200
     47 H18        128.7710   161.0690   157.6170 hc         1 EID       0.054200
     48 H19        126.5580   158.2010   158.2190 ha         1 EID       0.111000
     49 H20        125.4990   157.6960   160.4100 ha         1 EID       0.111000
     50 H21        125.5250   159.3960   162.2350 ha         1 EID       0.112000
     51 H22        126.6160   161.6060   161.8600 ha         1 EID       0.111000
     52 H23        127.6790   162.1180   159.6710 ha         1 EID       0.111000
     53 H24        129.4300   161.8580   155.6590 h1         1 EID       0.042200
     54 H25        128.4800   163.3120   155.5110 h1         1 EID       0.042200
     55 H26        129.9930   163.1840   153.6490 hc         1 EID       0.081700
     56 H27        130.5560   160.7750   153.9380 hc         1 EID       0.035367
     57 H28        129.1160   160.3150   153.0270 hc         1 EID       0.035367
     58 H29        130.4250   161.2200   152.2460 hc         1 EID       0.035367
     59 H30        127.3740   166.5400   155.3780 h1         1 EID       0.047700
     60 H31        128.0780   167.0060   153.8150 h1         1 EID       0.047700
     61 H32        126.3520   166.5740   153.9260 h1         1 EID       0.047700
     62 C16        126.9000   161.3210   156.5330 c3         1 EID       0.169800
@<TRIPOS>BOND
     1     1     2 1   
     2     1    30 1   
     3     1    31 1   
     4     1    32 1   
     5     2     3 1   
     6     2    33 1   
     7     2    34 1   
     8     3    25 1   
     9     3    27 2   
    10     4     5 ar  
    11     4     9 ar  
    12     4    25 1   
    13     5     6 ar  
    14     5    35 1   
    15     6     7 ar  
    16     6    36 1   
    17     7     8 ar  
    18     7    37 1   
    19     8     9 ar  
    20     8    38 1   
    21     9    39 1   
    22    10    11 1   
    23    10    21 1   
    24    10    23 1   
    25    10    25 1   
    26    11    12 1   
    27    11    40 1   
    28    11    41 1   
    29    12    26 1   
    30    12    42 1   
    31    12    43 1   
    32    13    14 1   
    33    13    46 1   
    34    13    47 1   
    35    13    62 1   
    36    14    15 ar  
    37    14    19 ar  
    38    15    16 ar  
    39    15    48 1   
    40    16    17 ar  
    41    16    49 1   
    42    17    18 ar  
    43    17    50 1   
    44    18    19 ar  
    45    18    51 1   
    46    19    52 1   
    47    20    21 1   
    48    20    26 1   
    49    20    53 1   
    50    20    54 1   
    51    21    22 1   
    52    21    55 1   
    53    22    56 1   
    54    22    57 1   
    55    22    58 1   
    56    23    28 2   
    57    23    29 1   
    58    24    29 1   
    59    24    59 1   
    60    24    60 1   
    61    24    61 1   
    62    26    62 1   
    63    44    62 1   
    64    45    62 1   
@<TRIPOS>SUBSTRUCTURE
     1 EID         1 TEMP              0 ****  ****    0 ROOT
