@<TRIPOS>MOLECULE
EIE
   38    40     1     0     0
SMALL
bcc


@<TRIPOS>ATOM
      1 N1         120.6790    98.9900   110.5940 ne         1 EIE      -0.400400
      2 C7         116.7460   101.3040   112.1070 c          1 EIE       0.721700
      3 C8         117.6290   100.9840   110.9300 cc         1 EIE      -0.208800
      4 N2         121.5270    98.6890   109.7640 n1         1 EIE       0.130700
      5 C9         118.7120   100.1540   111.1900 cd         1 EIE      -0.151600
      6 O1         112.3190   102.6230   109.8560 os         1 EIE      -0.440900
      7 C1         110.9160   102.8290   110.0800 c3         1 EIE       0.146400
      8 C5         114.8410   101.0460   110.5960 c3         1 EIE       0.167300
      9 N3         122.3520    98.3440   109.0910 n1         1 EIE      -0.020000
     10 C4         115.1290   102.1810   109.6830 cc         1 EIE      -0.161900
     11 C3         114.4310   103.2130   109.1060 cd         1 EIE       0.273800
     12 C2         110.6690   103.7360   111.2660 c3         1 EIE      -0.122100
     13 N4         116.4300   102.3910   109.3250 na         1 EIE      -0.220900
     14 N          115.4150   101.3170   111.9030 n          1 EIE      -0.467800
     15 C          112.9980   103.5270   109.1620 c          1 EIE       0.582600
     16 O          112.5060   104.4940   108.6350 o          1 EIE      -0.505000
     17 C10        119.6510    99.8600   110.2110 cd         1 EIE       0.472900
     18 C11        119.5240   100.4320   108.9460 cd         1 EIE      -0.245600
     19 C12        118.4530   101.2600   108.6770 cc         1 EIE      -0.199600
     20 C13        117.5060   101.5420   109.6530 cc         1 EIE       0.272900
     21 C14        116.4650   103.5180   108.5570 cc         1 EIE       0.409400
     22 N5         115.2830   104.0290   108.4100 nd         1 EIE      -0.613000
     23 H1         118.8310    99.7220   112.1750 ha         1 EIE       0.175000
     24 H2         110.4410   103.2160   109.1780 h1         1 EIE       0.059700
     25 H3         110.5190   101.8330   110.2680 h1         1 EIE       0.059700
     26 H4         113.7730   100.8960   110.7110 h1         1 EIE       0.081700
     27 H5         115.2440   100.1150   110.1860 h1         1 EIE       0.081700
     28 H6         115.0310   101.9850   113.8460 h1         1 EIE       0.050700
     29 H7         113.9730   102.6660   112.6020 h1         1 EIE       0.050700
     30 H8         113.7540   100.9910   113.1320 h1         1 EIE       0.050700
     31 H10        109.5980   103.7840   111.4620 hc         1 EIE       0.048033
     32 H11        111.1550   103.3530   112.1640 hc         1 EIE       0.048033
     33 H12        111.0210   104.7510   111.0860 hc         1 EIE       0.048033
     34 H13        120.2390   100.2300   108.1590 ha         1 EIE       0.140000
     35 H14        118.3500   101.6810   107.6850 ha         1 EIE       0.150000
     36 H15        117.3870   103.9130   108.1570 h5         1 EIE       0.067100
     37 O2         117.2660   101.5140   113.1910 o          1 EIE      -0.614500
     38 C6         114.4950   101.7650   112.9300 c3         1 EIE       0.085300
@<TRIPOS>BOND
     1     1     4 1   
     2     1    17 2   
     3     2     3 1   
     4     2    14 1   
     5     2    37 2   
     6     3     5 2   
     7     3    20 1   
     8     4     9 3   
     9     5    17 1   
    10     5    23 1   
    11     6     7 1   
    12     6    15 1   
    13     7    12 1   
    14     7    24 1   
    15     7    25 1   
    16     8    10 1   
    17     8    14 1   
    18     8    26 1   
    19     8    27 1   
    20    10    11 2   
    21    10    13 1   
    22    11    15 1   
    23    11    22 1   
    24    12    31 1   
    25    12    32 1   
    26    12    33 1   
    27    13    20 2   
    28    13    21 1   
    29    14    38 1   
    30    15    16 2   
    31    17    18 1   
    32    18    19 2   
    33    18    34 1   
    34    19    20 1   
    35    19    35 1   
    36    21    22 2   
    37    21    36 1   
    38    28    38 1   
    39    29    38 1   
    40    30    38 1   
@<TRIPOS>SUBSTRUCTURE
     1 EIE         1 TEMP              0 ****  ****    0 ROOT
