@<TRIPOS>MOLECULE
EIE
   38    40     1     0     0
SMALL
No Charge or Current Charge


@<TRIPOS>ATOM
      1 N1         120.8890    99.3230   110.5660 ne         1 EIE      -0.400400
      2 C7         116.6880   101.0670   112.1450 c          1 EIE       0.579200
      3 C8         117.6430   100.9360   110.9890 cc         1 EIE      -0.208800
      4 N2         121.5690    98.7370   109.6910 n1         1 EIE       0.130700
      5 C9         118.8180   100.2210   111.2450 cd         1 EIE      -0.201600
      6 O1         112.2530   102.5990   109.9390 os         1 EIE      -0.464100
      7 C1         110.8520   102.8370   110.1850 c3         1 EIE       0.169600
      8 C5         114.7410   101.0550   110.5810 c3         1 EIE       0.167300
      9 N3         122.2450    98.1340   109.0030 n1         1 EIE      -0.020000
     10 C4         115.1370   102.1740   109.6800 cc         1 EIE      -0.147300
     11 C3         114.4500   103.1930   109.0230 cd         1 EIE       0.208500
     12 C2         110.7160   103.9930   111.1960 c3         1 EIE      -0.122100
     13 N4         116.4370   102.4110   109.3450 na         1 EIE      -0.170200
     14 N          115.3260   101.3230   111.8930 n          1 EIE      -0.400800
     15 C          112.9590   103.4490   109.1160 c          1 EIE       0.533600
     16 O          112.4130   104.3570   108.4970 o          1 EIE      -0.456000
     17 C10        119.8260   100.0220   110.2430 cd         1 EIE       0.472900
     18 C11        119.6490   100.6030   108.9370 cd         1 EIE      -0.295600
     19 C12        118.5170   101.3500   108.6740 cc         1 EIE      -0.249600
     20 C13        117.4930   101.5490   109.6720 cc         1 EIE       0.272900
     21 C14        116.5580   103.4320   108.4440 cc         1 EIE       0.409400
     22 N5         115.3540   103.9500   108.2550 nd         1 EIE      -0.613000
     23 H1         118.9930    99.7700   112.2170 ha         1 EIE       0.225000
     24 H2         110.3110   103.0680   109.2570 h1         1 EIE       0.059700
     25 H3         110.3950   101.9390   110.6200 h1         1 EIE       0.059700
     26 H4         113.6570   100.9300   110.6600 h1         1 EIE       0.081700
     27 H5         115.1380   100.1090   110.1900 h1         1 EIE       0.081700
     28 H6         114.8510   102.2790   113.7280 h1         1 EIE       0.050700
     29 H7         113.4680   102.0530   112.6290 h1         1 EIE       0.050700
     30 H8         114.1390   100.6510   113.5150 h1         1 EIE       0.050700
     31 H10        109.6630   104.1360   111.4640 hc         1 EIE       0.048033
     32 H11        111.2740   103.7690   112.1130 hc         1 EIE       0.048033
     33 H12        111.0900   104.9350   110.7790 hc         1 EIE       0.048033
     34 H13        120.4040   100.4720   108.1680 ha         1 EIE       0.190000
     35 H14        118.3960   101.7840   107.6850 ha         1 EIE       0.200000
     36 H15        117.4950   103.7720   108.0190 h5         1 EIE       0.067100
     37 O2         117.0610   100.9060   113.3010 o          1 EIE      -0.539000
     38 C6         114.3900   101.5910   113.0080 c3         1 EIE       0.085300
@<TRIPOS>BOND
     1     1     4 1   
     2     1    17 2   
     3     2     3 1   
     4     2    14 1   
     5     2    37 2   
     6     3     5 2   
     7     3    20 1   
     8     4     9 3   
     9     5    17 1   
    10     5    23 1   
    11     6     7 1   
    12     6    15 1   
    13     7    12 1   
    14     7    24 1   
    15     7    25 1   
    16     8    10 1   
    17     8    14 1   
    18     8    26 1   
    19     8    27 1   
    20    10    11 2   
    21    10    13 1   
    22    11    15 1   
    23    11    22 1   
    24    12    31 1   
    25    12    32 1   
    26    12    33 1   
    27    13    20 2   
    28    13    21 1   
    29    14    38 1   
    30    15    16 2   
    31    17    18 1   
    32    18    19 2   
    33    18    34 1   
    34    19    20 1   
    35    19    35 1   
    36    21    22 2   
    37    21    36 1   
    38    28    38 1   
    39    29    38 1   
    40    30    38 1   
@<TRIPOS>SUBSTRUCTURE
     1 EIE         1 TEMP              0 ****  ****    0 ROOT
