@<TRIPOS>MOLECULE
EIG
   60    63     1     0     0
SMALL
No Charge or Current Charge


@<TRIPOS>ATOM
      1 C10         70.9390    93.2200    29.7760 c5         1 EIG       0.158500
      2 C13         69.7450    92.8050    30.6850 c6         1 EIG      -0.063400
      3 C15         69.9770    90.3870    29.8460 c6         1 EIG      -0.048700
      4 C22         65.7640    89.6990    27.9120 c3         1 EIG       0.144900
      5 C01         71.6100    95.1720    32.3720 ca         1 EIG       0.361000
      6 C02         71.4290    95.3030    33.7490 ca         1 EIG      -0.195000
      7 C03         70.7870    96.4530    34.2440 ca         1 EIG      -0.023000
      8 C04         70.3300    97.4460    33.3530 ca         1 EIG      -0.205000
      9 C05         70.5060    97.2930    31.9570 ca         1 EIG       0.223100
     10 C06         69.3770    99.4290    31.4520 c3         1 EIG       0.158900
     11 C07         71.1500    96.1410    31.4920 ca         1 EIG      -0.310600
     12 C08         71.9500    94.3040    30.2910 c5         1 EIG       0.114200
     13 C09         71.3960    95.7450    30.0850 c          1 EIG       0.605700
     14 C11         72.9510    92.6430    28.7840 c5         1 EIG       0.159800
     15 C12         73.2840    93.9700    29.5410 c5         1 EIG      -0.069400
     16 C14         68.9950    91.5900    30.0570 c6         1 EIG       0.013500
     17 C16         71.1860    90.8640    28.9840 c6         1 EIG       0.173800
     18 C18         70.4160    89.7030    31.1850 c3         1 EIG      -0.063400
     19 C23         65.8090    91.0520    33.9810 c3         1 EIG       0.156900
     20 N01         72.2250    94.0910    31.7590 nu         1 EIG      -0.925200
     21 N02         71.8390    92.0600    29.5750 n3         1 EIG      -0.725600
     22 O01         70.0540    98.2250    31.0470 os         1 EIG      -0.360100
     23 O02         71.2550    96.4180    29.0680 o          1 EIG      -0.519100
     24 O03         66.8390    90.3440    28.6150 os         1 EIG      -0.336100
     25 O04         66.1700    90.9450    32.5910 os         1 EIG      -0.462100
     26 O05         68.2440    91.7890    33.0070 o          1 EIG      -0.491000
     27 H1          70.5210    93.5430    28.8100 h1         1 EIG       0.047700
     28 H2          70.1230    92.5510    31.6790 hc         1 EIG       0.064200
     29 H3          69.0600    93.6540    30.8060 hc         1 EIG       0.064200
     30 H4          69.4490    89.6120    29.2740 hc         1 EIG       0.048700
     31 H6          65.7390    90.2340    30.3660 h4         1 EIG       0.191000
     32 H7          71.4170    87.9460    32.0000 hc         1 EIG       0.028367
     33 H8          70.7150    87.6880    30.3900 hc         1 EIG       0.028367
     34 H9          72.2220    88.6190    30.5730 hc         1 EIG       0.028367
     35 H10         66.0180    89.5830    26.8510 h1         1 EIG       0.046700
     36 H11         65.5700    88.7020    28.3280 h1         1 EIG       0.046700
     37 H12         64.8430    90.2910    27.9810 h1         1 EIG       0.046700
     38 H13         71.7860    94.5340    34.4270 ha         1 EIG       0.125000
     39 H14         70.6430    96.5750    35.3160 ha         1 EIG       0.111000
     40 H15         69.8360    98.3210    33.7650 ha         1 EIG       0.127000
     41 H16         69.1060   100.0260    30.5720 h1         1 EIG       0.039033
     42 H17         68.4560    99.1930    31.9990 h1         1 EIG       0.039033
     43 H18         70.0230   100.0420    32.0930 h1         1 EIG       0.039033
     44 H19         72.6290    92.8570    27.7550 h1         1 EIG       0.039200
     45 H20         73.8200    91.9720    28.7300 h1         1 EIG       0.039200
     46 H21         73.5740    94.7560    28.8350 hc         1 EIG       0.065200
     47 H22         74.1310    93.8350    30.2230 hc         1 EIG       0.065200
     48 H23         68.7210    91.9370    29.0500 hc         1 EIG       0.053700
     49 H25         71.9130    90.0490    28.8630 h1         1 EIG       0.032700
     50 H26         70.8190    91.1070    27.9760 h1         1 EIG       0.032700
     51 H27         70.9950    90.4010    31.8010 hc         1 EIG       0.047700
     52 H28         69.5280    89.4450    31.7730 hc         1 EIG       0.047700
     53 H29         64.7840    90.6930    34.1380 h1         1 EIG       0.046700
     54 H30         66.4800    90.4500    34.6080 h1         1 EIG       0.046700
     55 H31         65.8590    92.0950    34.3200 h1         1 EIG       0.046700
     56 H32         72.0800    93.1780    32.1910 hn         1 EIG       0.508000
     57 C17         67.6540    91.1580    30.7280 ce         1 EIG      -0.240400
     58 C21         71.2440    88.4110    31.0220 c3         1 EIG      -0.089100
     59 C19         67.4240    91.3540    32.2120 c          1 EIG       0.615300
     60 C20         66.6960    90.5720    29.9610 c2         1 EIG       0.050100
@<TRIPOS>BOND
     1     1     2 1   
     2     1    12 1   
     3     1    21 1   
     4     1    27 1   
     5     2    16 1   
     6     2    28 1   
     7     2    29 1   
     8     3    16 1   
     9     3    17 1   
    10     3    18 1   
    11     3    30 1   
    12     4    24 1   
    13     4    35 1   
    14     4    36 1   
    15     4    37 1   
    16     5     6 ar  
    17     5    11 ar  
    18     5    20 1   
    19     6     7 ar  
    20     6    38 1   
    21     7     8 ar  
    22     7    39 1   
    23     8     9 ar  
    24     8    40 1   
    25     9    11 ar  
    26     9    22 1   
    27    10    22 1   
    28    10    41 1   
    29    10    42 1   
    30    10    43 1   
    31    11    13 1   
    32    12    13 1   
    33    12    15 1   
    34    12    20 1   
    35    13    23 2   
    36    14    15 1   
    37    14    21 1   
    38    14    44 1   
    39    14    45 1   
    40    15    46 1   
    41    15    47 1   
    42    16    48 1   
    43    16    57 1   
    44    17    21 1   
    45    17    49 1   
    46    17    50 1   
    47    18    51 1   
    48    18    52 1   
    49    18    58 1   
    50    19    25 1   
    51    19    53 1   
    52    19    54 1   
    53    19    55 1   
    54    20    56 1   
    55    24    60 1   
    56    25    59 1   
    57    26    59 2   
    58    31    60 1   
    59    32    58 1   
    60    33    58 1   
    61    34    58 1   
    62    57    59 1   
    63    57    60 2   
@<TRIPOS>SUBSTRUCTURE
     1 EIG         1 TEMP              0 ****  ****    0 ROOT
