@<TRIPOS>MOLECULE
EIG
   60    63     1     0     0
SMALL
abcg2


@<TRIPOS>ATOM
      1 C10         70.7510    93.2640    29.8660 c5         1 EIG       0.158500
      2 C13         69.5970    92.7970    30.7350 c6         1 EIG      -0.063400
      3 C15         70.0270    90.4550    29.8630 c6         1 EIG      -0.048700
      4 C22         65.8940    89.5910    27.9560 c3         1 EIG       0.144900
      5 C01         71.2940    95.1920    32.5480 ca         1 EIG       0.361000
      6 C02         71.1580    95.2780    33.9360 ca         1 EIG      -0.195000
      7 C03         70.4800    96.3680    34.4440 ca         1 EIG      -0.023000
      8 C04         69.9530    97.3770    33.6280 ca         1 EIG      -0.205000
      9 C05         70.0860    97.2870    32.2540 ca         1 EIG       0.223100
     10 C06         70.4830    99.1630    30.9100 c3         1 EIG       0.158900
     11 C07         70.7500    96.1810    31.7100 ca         1 EIG      -0.310600
     12 C08         71.6510    94.3880    30.4160 c5         1 EIG       0.114200
     13 C09         70.9590    95.7490    30.3400 c          1 EIG       0.605700
     14 C11         72.8180    92.8300    28.9420 c5         1 EIG       0.159800
     15 C12         72.9070    94.2470    29.5340 c5         1 EIG      -0.069400
     16 C14         68.9680    91.5600    30.0840 c6         1 EIG       0.013500
     17 C16         71.1570    91.0450    29.0190 c6         1 EIG       0.173800
     18 C18         70.5300    89.8060    31.1520 c3         1 EIG      -0.063400
     19 C23         65.8190    90.9030    33.8680 c3         1 EIG       0.156900
     20 N01         71.9300    94.2340    31.8280 nu         1 EIG      -0.925200
     21 N02         71.7220    92.2080    29.6600 n3         1 EIG      -0.725600
     22 O01         69.5480    98.2440    31.4630 os         1 EIG      -0.360100
     23 O02         70.6470    96.2890    29.2980 o          1 EIG      -0.519100
     24 O03         66.9390    90.2610    28.6490 os         1 EIG      -0.336100
     25 O04         66.1620    90.8710    32.4870 os         1 EIG      -0.462100
     26 O05         68.2350    91.5010    32.9920 o          1 EIG      -0.491000
     27 H1          70.3440    93.6160    28.8970 h1         1 EIG       0.047700
     28 H2          69.9510    92.5780    31.7390 hc         1 EIG       0.064200
     29 H3          68.8520    93.5930    30.8200 hc         1 EIG       0.064200
     30 H4          69.5600    89.6700    29.2570 hc         1 EIG       0.048700
     31 H6          65.8410    90.0440    30.3690 h4         1 EIG       0.191000
     32 H7          71.6760    88.1050    31.8530 hc         1 EIG       0.028367
     33 H8          70.9420    87.8640    30.2710 hc         1 EIG       0.028367
     34 H9          72.3740    88.8750    30.4390 hc         1 EIG       0.028367
     35 H10         66.1880    89.5420    26.9110 h1         1 EIG       0.046700
     36 H11         65.7550    88.5770    28.3350 h1         1 EIG       0.046700
     37 H12         64.9520    90.1360    28.0360 h1         1 EIG       0.046700
     38 H13         71.5600    94.5130    34.5880 ha         1 EIG       0.125000
     39 H14         70.3560    96.4540    35.5160 ha         1 EIG       0.111000
     40 H15         69.4360    98.2200    34.0660 ha         1 EIG       0.127000
     41 H16         69.9170    99.8590    30.2950 h1         1 EIG       0.039033
     42 H17         70.9960    99.7220    31.6960 h1         1 EIG       0.039033
     43 H18         71.2270    98.6670    30.2840 h1         1 EIG       0.039033
     44 H19         72.6080    92.8900    27.8630 h1         1 EIG       0.039200
     45 H20         73.7390    92.2570    29.0620 h1         1 EIG       0.039200
     46 H21         72.9080    94.9950    28.7410 hc         1 EIG       0.065200
     47 H22         73.8040    94.3990    30.1320 hc         1 EIG       0.065200
     48 H23         68.6800    91.8840    29.0760 hc         1 EIG       0.053700
     49 H25         71.9460    90.3080    28.8580 h1         1 EIG       0.032700
     50 H26         70.7630    91.3020    28.0180 h1         1 EIG       0.032700
     51 H27         71.0620    90.5390    31.7620 hc         1 EIG       0.047700
     52 H28         69.6700    89.4820    31.7420 hc         1 EIG       0.047700
     53 H29         64.7710    90.6210    33.9210 h1         1 EIG       0.046700
     54 H30         66.4100    90.1950    34.4500 h1         1 EIG       0.046700
     55 H31         65.9420    91.9000    34.2900 h1         1 EIG       0.046700
     56 H32         72.1010    93.3190    32.2140 hn         1 EIG       0.508000
     57 C17         67.6900    91.0510    30.7170 ce         1 EIG      -0.240400
     58 C21         71.4310    88.6000    30.9130 c3         1 EIG      -0.089100
     59 C19         67.4230    91.1690    32.1580 c          1 EIG       0.615300
     60 C20         66.7650    90.4350    29.9530 c2         1 EIG       0.050100
@<TRIPOS>BOND
     1     1     2 1   
     2     1    12 1   
     3     1    21 1   
     4     1    27 1   
     5     2    16 1   
     6     2    28 1   
     7     2    29 1   
     8     3    16 1   
     9     3    17 1   
    10     3    18 1   
    11     3    30 1   
    12     4    24 1   
    13     4    35 1   
    14     4    36 1   
    15     4    37 1   
    16     5     6 ar  
    17     5    11 ar  
    18     5    20 1   
    19     6     7 ar  
    20     6    38 1   
    21     7     8 ar  
    22     7    39 1   
    23     8     9 ar  
    24     8    40 1   
    25     9    11 ar  
    26     9    22 1   
    27    10    22 1   
    28    10    41 1   
    29    10    42 1   
    30    10    43 1   
    31    11    13 1   
    32    12    13 1   
    33    12    15 1   
    34    12    20 1   
    35    13    23 2   
    36    14    15 1   
    37    14    21 1   
    38    14    44 1   
    39    14    45 1   
    40    15    46 1   
    41    15    47 1   
    42    16    48 1   
    43    16    57 1   
    44    17    21 1   
    45    17    49 1   
    46    17    50 1   
    47    18    51 1   
    48    18    52 1   
    49    18    58 1   
    50    19    25 1   
    51    19    53 1   
    52    19    54 1   
    53    19    55 1   
    54    20    56 1   
    55    24    60 1   
    56    25    59 1   
    57    26    59 2   
    58    31    60 1   
    59    32    58 1   
    60    33    58 1   
    61    34    58 1   
    62    57    59 1   
    63    57    60 2   
@<TRIPOS>SUBSTRUCTURE
     1 EIG         1 TEMP              0 ****  ****    0 ROOT
