@<TRIPOS>MOLECULE
EIM
   78    80     1     0     0
SMALL
No Charge or Current Charge


@<TRIPOS>ATOM
      1 C1           0.6320    -2.9010    -1.2810 c6         1 EIM      -0.062400
      2 C2          -0.8020    -3.3260    -1.7070 c6         1 EIM      -0.072400
      3 C3          -1.8490    -3.0750    -0.5930 c6         1 EIM      -0.042200
      4 C4          -1.7130    -1.6700    -0.0000 c2         1 EIM      -0.076400
      5 C5          -0.2840    -1.3130     0.4730 c5         1 EIM      -0.034500
      6 C6           0.6870    -1.4250    -0.7540 c5         1 EIM      -0.034000
      7 C7           0.0040     0.1340     0.9650 c5         1 EIM       0.168300
      8 C8           1.5630     0.2320     0.8590 c5         1 EIM      -0.107400
      9 C9           2.0310    -1.0110     0.0040 c5         1 EIM      -0.049700
     10 C10         -2.7220    -0.7710     0.1760 ce         1 EIM      -0.185000
     11 C11         -4.1330    -0.9540    -0.2130 ce         1 EIM      -0.163000
     12 C12         -5.1890    -0.1740     0.1720 cf         1 EIM      -0.064200
     13 C13         -6.5910    -0.4590    -0.4020 c6         1 EIM      -0.074200
     14 C14         -7.2840     0.8320    -0.8960 c6         1 EIM       0.176300
     15 C15         -7.3240     1.8820     0.2350 c6         1 EIM      -0.065400
     16 C16         -5.9040     2.2280     0.7380 c6         1 EIM       0.211500
     17 C17         -5.1140     0.9560     1.1120 cf         1 EIM      -0.127200
     18 C18         -4.4320     0.8980     2.2810 c2         1 EIM      -0.293000
     19 C19          3.3790    -0.7280    -0.7900 c3         1 EIM      -0.047700
     20 C20          0.3610    -0.4520    -1.9410 c3         1 EIM      -0.081100
     21 O21         -5.2080     3.0020    -0.2420 oh         1 EIM      -0.656000
     22 O22         -8.6170     0.5360    -1.3330 oh         1 EIM      -0.662000
     23 C23          3.7790    -1.8760    -1.7530 c3         1 EIM      -0.087100
     24 C24          4.5510    -0.3710     0.1810 c3         1 EIM      -0.078400
     25 C25          5.8370     0.1780    -0.4880 c3         1 EIM      -0.072400
     26 C26          6.8840     0.6740     0.5470 c3         1 EIM      -0.102400
     27 C27          8.1890     1.2950    -0.0350 c3         1 EIM       0.184000
     28 C28          9.1000     1.7870     1.1140 c3         1 EIM      -0.100100
     29 C29          8.9640     0.3040    -0.9380 c3         1 EIM      -0.100100
     30 O30          7.8450     2.4330    -0.8270 oh         1 EIM      -0.660000
     31 O31         -0.3810     0.2330     2.3600 os         1 EIM      -0.448000
     32 C33         -0.2790     1.5290     2.9770 c3         1 EIM       0.146900
     33 H1           0.9900    -3.5830    -0.4980 hc         1 EIM       0.042200
     34 H1A          1.2980    -3.0480    -2.1370 hc         1 EIM       0.042200
     35 H2          -1.0980    -2.7840    -2.6150 hc         1 EIM       0.040700
     36 H2A         -0.8050    -4.3900    -1.9800 hc         1 EIM       0.040700
     37 H3          -2.8510    -3.2710    -0.9880 hc         1 EIM       0.047200
     38 H3A         -1.6960    -3.8080     0.2110 hc         1 EIM       0.047200
     39 H5           0.0010    -2.0260     1.2570 hc         1 EIM       0.069700
     40 H7          -0.4970     0.9070     0.3670 h1         1 EIM       0.038700
     41 H8           1.8430     1.1790     0.3840 hc         1 EIM       0.048700
     42 H8A          2.0450     0.2220     1.8430 hc         1 EIM       0.048700
     43 H9           2.2920    -1.8230     0.6950 hc         1 EIM       0.048700
     44 H10         -2.5180     0.1880     0.6430 ha         1 EIM       0.177000
     45 H11         -4.3470    -1.7660    -0.9050 ha         1 EIM       0.169000
     46 H13         -6.5290    -1.1790    -1.2300 hc         1 EIM       0.051200
     47 H13A        -7.2010    -0.9370     0.3770 hc         1 EIM       0.051200
     48 H14         -6.7000     1.2420    -1.7330 h1         1 EIM       0.050700
     49 H15         -7.8290     2.7930    -0.1110 hc         1 EIM       0.061700
     50 H15A        -7.9180     1.4960     1.0740 hc         1 EIM       0.061700
     51 H16         -6.0240     2.8380     1.6460 h1         1 EIM       0.035700
     52 H18         -3.8980    -0.0030     2.5820 ha         1 EIM       0.170500
     53 H18A        -4.4050     1.7440     2.9690 ha         1 EIM       0.170500
     54 H19          3.2120     0.1560    -1.4180 hc         1 EIM       0.048700
     55 H20         -0.6810    -0.5330    -2.2700 hc         1 EIM       0.035700
     56 H20A         0.5310     0.5990    -1.6870 hc         1 EIM       0.035700
     57 H20B         0.9930    -0.6670    -2.8110 hc         1 EIM       0.035700
     58 HO21        -4.2700     3.0120     0.0470 ho         1 EIM       0.443000
     59 HO22        -8.5340    -0.0790    -2.0940 ho         1 EIM       0.441000
     60 H23          3.0820    -1.9320    -2.5950 hc         1 EIM       0.033367
     61 H23A         4.7650    -1.7160    -2.1980 hc         1 EIM       0.033367
     62 H23B         3.7900    -2.8410    -1.2320 hc         1 EIM       0.033367
     63 H24          4.2110     0.3890     0.8930 hc         1 EIM       0.036700
     64 H24A         4.8070    -1.2570     0.7770 hc         1 EIM       0.036700
     65 H25          6.2940    -0.6060    -1.1000 hc         1 EIM       0.045700
     66 H25A         5.5670     1.0010    -1.1610 hc         1 EIM       0.045700
     67 H26          6.4030     1.4130     1.2000 hc         1 EIM       0.039200
     68 H26A         7.1550    -0.1700     1.1930 hc         1 EIM       0.039200
     69 H28          9.4130     0.9480     1.7470 hc         1 EIM       0.041200
     70 H28A        10.0040     2.2680     0.7200 hc         1 EIM       0.041200
     71 H28B         8.5790     2.5140     1.7490 hc         1 EIM       0.041200
     72 H29          8.3900     0.0450    -1.8340 hc         1 EIM       0.041200
     73 H29A         9.9140     0.7410    -1.2690 hc         1 EIM       0.041200
     74 H29B         9.1890    -0.6210    -0.3940 hc         1 EIM       0.041200
     75 HO30         7.2840     3.0090    -0.2660 ho         1 EIM       0.438000
     76 H33          0.7570     1.8900     2.9730 h1         1 EIM       0.026700
     77 H33A        -0.9030     2.2600     2.4470 h1         1 EIM       0.026700
     78 H33B        -0.6190     1.4820     4.0190 h1         1 EIM       0.026700
@<TRIPOS>BOND
     1     1     2 1   
     2     1     6 1   
     3     1    33 1   
     4     1    34 1   
     5     2     3 1   
     6     2    35 1   
     7     2    36 1   
     8     3     4 1   
     9     3    37 1   
    10     3    38 1   
    11     4     5 1   
    12     4    10 2   
    13     5     6 1   
    14     5     7 1   
    15     5    39 1   
    16     6     9 1   
    17     6    20 1   
    18     7     8 1   
    19     7    31 1   
    20     7    40 1   
    21     8     9 1   
    22     8    41 1   
    23     8    42 1   
    24     9    19 1   
    25     9    43 1   
    26    10    11 1   
    27    10    44 1   
    28    11    12 2   
    29    11    45 1   
    30    12    13 1   
    31    12    17 1   
    32    13    14 1   
    33    13    46 1   
    34    13    47 1   
    35    14    15 1   
    36    14    22 1   
    37    14    48 1   
    38    15    16 1   
    39    15    49 1   
    40    15    50 1   
    41    16    17 1   
    42    16    21 1   
    43    16    51 1   
    44    17    18 2   
    45    18    52 1   
    46    18    53 1   
    47    19    23 1   
    48    19    24 1   
    49    19    54 1   
    50    20    55 1   
    51    20    56 1   
    52    20    57 1   
    53    21    58 1   
    54    22    59 1   
    55    23    60 1   
    56    23    61 1   
    57    23    62 1   
    58    24    25 1   
    59    24    63 1   
    60    24    64 1   
    61    25    26 1   
    62    25    65 1   
    63    25    66 1   
    64    26    27 1   
    65    26    67 1   
    66    26    68 1   
    67    27    28 1   
    68    27    29 1   
    69    27    30 1   
    70    28    69 1   
    71    28    70 1   
    72    28    71 1   
    73    29    72 1   
    74    29    73 1   
    75    29    74 1   
    76    30    75 1   
    77    31    32 1   
    78    32    76 1   
    79    32    77 1   
    80    32    78 1   
@<TRIPOS>SUBSTRUCTURE
     1 EIM         1 TEMP              0 ****  ****    0 ROOT
