@<TRIPOS>MOLECULE
EIM
   78    80     1     0     0
SMALL
abcg2


@<TRIPOS>ATOM
      1 C1           0.6760    -2.8830    -1.1450 c6         1 EIM      -0.062400
      2 C2          -0.7440    -3.2650    -1.5620 c6         1 EIM      -0.072400
      3 C3          -1.7790    -3.0000    -0.4630 c6         1 EIM      -0.042200
      4 C4          -1.6660    -1.6070     0.0910 c2         1 EIM      -0.076400
      5 C5          -0.2640    -1.3070     0.5200 c5         1 EIM      -0.034500
      6 C6           0.7580    -1.4410    -0.6330 c5         1 EIM      -0.034000
      7 C7           0.0770     0.0210     1.1640 c5         1 EIM       0.168300
      8 C8           1.6170     0.0880     1.0590 c5         1 EIM      -0.107400
      9 C9           2.0610    -1.0580     0.1140 c5         1 EIM      -0.049700
     10 C10         -2.6750    -0.7330     0.2280 ce         1 EIM      -0.185000
     11 C11         -4.0500    -0.9430    -0.1800 ce         1 EIM      -0.163000
     12 C12         -5.1020    -0.1680     0.1360 cf         1 EIM      -0.064200
     13 C13         -6.4790    -0.4610    -0.3990 c6         1 EIM      -0.074200
     14 C14         -7.1210     0.7740    -1.0320 c6         1 EIM       0.176300
     15 C15         -7.1190     1.9260    -0.0390 c6         1 EIM      -0.065400
     16 C16         -5.7160     2.2520     0.4540 c6         1 EIM       0.211500
     17 C17         -5.0410     1.0190     1.0100 cf         1 EIM      -0.127200
     18 C18         -4.4650     1.0360     2.2120 c2         1 EIM      -0.293000
     19 C19          3.3010    -0.6900    -0.7110 c3         1 EIM      -0.047700
     20 C20          0.4580    -0.4470    -1.7580 c3         1 EIM      -0.081100
     21 O21         -4.9820     2.7580    -0.6450 oh         1 EIM      -0.656000
     22 O22         -8.4630     0.5310    -1.4010 oh         1 EIM      -0.662000
     23 C23          3.6950    -1.7780    -1.7090 c3         1 EIM      -0.087100
     24 C24          4.4840    -0.3810     0.2180 c3         1 EIM      -0.078400
     25 C25          5.6390     0.3520    -0.4590 c3         1 EIM      -0.072400
     26 C26          6.8160     0.5600     0.4860 c3         1 EIM      -0.102400
     27 C27          8.0090     1.3350    -0.0910 c3         1 EIM       0.184000
     28 C28          9.0970     1.4420     0.9780 c3         1 EIM      -0.100100
     29 C29          8.5770     0.6570    -1.3320 c3         1 EIM      -0.100100
     30 O30          7.6080     2.6360    -0.5060 oh         1 EIM      -0.660000
     31 O31         -0.4250     0.0630     2.4790 os         1 EIM      -0.448000
     32 C33         -0.4100     1.3510     3.0380 c3         1 EIM       0.146900
     33 H1           1.0110    -3.5540    -0.3450 hc         1 EIM       0.042200
     34 H1A          1.3520    -3.0470    -1.9850 hc         1 EIM       0.042200
     35 H2          -1.0310    -2.7180    -2.4640 hc         1 EIM       0.040700
     36 H2A         -0.7710    -4.3230    -1.8310 hc         1 EIM       0.040700
     37 H3          -2.7800    -3.2190    -0.8360 hc         1 EIM       0.047200
     38 H3A         -1.6010    -3.7050     0.3590 hc         1 EIM       0.047200
     39 H5           0.0130    -2.0870     1.2500 hc         1 EIM       0.069700
     40 H7          -0.3640     0.8460     0.5860 h1         1 EIM       0.038700
     41 H8           1.9430     1.0570     0.6740 hc         1 EIM       0.048700
     42 H8A          2.0620    -0.0210     2.0500 hc         1 EIM       0.048700
     43 H9           2.3290    -1.9270     0.7310 hc         1 EIM       0.048700
     44 H10         -2.4590     0.2230     0.6920 ha         1 EIM       0.177000
     45 H11         -4.2540    -1.7930    -0.8240 ha         1 EIM       0.169000
     46 H13         -6.4360    -1.2790    -1.1240 hc         1 EIM       0.051200
     47 H13A        -7.1250    -0.7900     0.4250 hc         1 EIM       0.051200
     48 H14         -6.5300     1.0590    -1.9130 h1         1 EIM       0.050700
     49 H15         -7.5680     2.8180    -0.4840 hc         1 EIM       0.061700
     50 H15A        -7.7320     1.6560     0.8270 hc         1 EIM       0.061700
     51 H16         -5.7900     3.0050     1.2500 h1         1 EIM       0.035700
     52 H18         -3.9890     0.1610     2.6360 ha         1 EIM       0.170500
     53 H18A        -4.4630     1.9340     2.8180 ha         1 EIM       0.170500
     54 H19          3.0730     0.2250    -1.2720 hc         1 EIM       0.048700
     55 H20         -0.5560    -0.5650    -2.1410 hc         1 EIM       0.035700
     56 H20A         0.5550     0.5910    -1.4340 hc         1 EIM       0.035700
     57 H20B         1.1440    -0.5860    -2.5940 hc         1 EIM       0.035700
     58 HO21        -4.0790     2.9200    -0.3540 ho         1 EIM       0.443000
     59 HO22        -8.4680    -0.1410    -2.0900 ho         1 EIM       0.441000
     60 H23          2.9770    -1.8800    -2.5220 hc         1 EIM       0.033367
     61 H23A         4.6600    -1.5650    -2.1680 hc         1 EIM       0.033367
     62 H23B         3.7760    -2.7490    -1.2140 hc         1 EIM       0.033367
     63 H24          4.1510     0.2240     1.0650 hc         1 EIM       0.036700
     64 H24A         4.8490    -1.3220     0.6490 hc         1 EIM       0.036700
     65 H25          5.9710    -0.2070    -1.3370 hc         1 EIM       0.045700
     66 H25A         5.2810     1.3180    -0.8280 hc         1 EIM       0.045700
     67 H26          6.4690     1.0860     1.3850 hc         1 EIM       0.039200
     68 H26A         7.1720    -0.4160     0.8340 hc         1 EIM       0.039200
     69 H28          9.4490     0.4550     1.2810 hc         1 EIM       0.041200
     70 H28A         9.9560     2.0050     0.6090 hc         1 EIM       0.041200
     71 H28B         8.7230     1.9450     1.8730 hc         1 EIM       0.041200
     72 H29          7.8610     0.6460    -2.1540 hc         1 EIM       0.041200
     73 H29A         9.4740     1.1740    -1.6770 hc         1 EIM       0.041200
     74 H29B         8.8500    -0.3750    -1.1130 hc         1 EIM       0.041200
     75 HO30         7.2360     3.0910     0.2580 ho         1 EIM       0.438000
     76 H33          0.6020     1.7640     3.1220 h1         1 EIM       0.026700
     77 H33A        -1.0140     2.0560     2.4530 h1         1 EIM       0.026700
     78 H33B        -0.8350     1.2880     4.0400 h1         1 EIM       0.026700
@<TRIPOS>BOND
     1     1     2 1   
     2     1     6 1   
     3     1    33 1   
     4     1    34 1   
     5     2     3 1   
     6     2    35 1   
     7     2    36 1   
     8     3     4 1   
     9     3    37 1   
    10     3    38 1   
    11     4     5 1   
    12     4    10 2   
    13     5     6 1   
    14     5     7 1   
    15     5    39 1   
    16     6     9 1   
    17     6    20 1   
    18     7     8 1   
    19     7    31 1   
    20     7    40 1   
    21     8     9 1   
    22     8    41 1   
    23     8    42 1   
    24     9    19 1   
    25     9    43 1   
    26    10    11 1   
    27    10    44 1   
    28    11    12 2   
    29    11    45 1   
    30    12    13 1   
    31    12    17 1   
    32    13    14 1   
    33    13    46 1   
    34    13    47 1   
    35    14    15 1   
    36    14    22 1   
    37    14    48 1   
    38    15    16 1   
    39    15    49 1   
    40    15    50 1   
    41    16    17 1   
    42    16    21 1   
    43    16    51 1   
    44    17    18 2   
    45    18    52 1   
    46    18    53 1   
    47    19    23 1   
    48    19    24 1   
    49    19    54 1   
    50    20    55 1   
    51    20    56 1   
    52    20    57 1   
    53    21    58 1   
    54    22    59 1   
    55    23    60 1   
    56    23    61 1   
    57    23    62 1   
    58    24    25 1   
    59    24    63 1   
    60    24    64 1   
    61    25    26 1   
    62    25    65 1   
    63    25    66 1   
    64    26    27 1   
    65    26    67 1   
    66    26    68 1   
    67    27    28 1   
    68    27    29 1   
    69    27    30 1   
    70    28    69 1   
    71    28    70 1   
    72    28    71 1   
    73    29    72 1   
    74    29    73 1   
    75    29    74 1   
    76    30    75 1   
    77    31    32 1   
    78    32    76 1   
    79    32    77 1   
    80    32    78 1   
@<TRIPOS>SUBSTRUCTURE
     1 EIM         1 TEMP              0 ****  ****    0 ROOT
