@<TRIPOS>MOLECULE
EIN
   46    47     1     0     0
SMALL
No Charge or Current Charge


@<TRIPOS>ATOM
      1 C14          3.6310     0.3080     0.1850 cp         1 EIN      -0.034000
      2 C15          4.2080    -0.5320    -0.8020 ca         1 EIN      -0.069000
      3 C16          5.5390    -0.9740    -0.6970 ca         1 EIN      -0.176500
      4 C17          6.3280    -0.5830     0.4050 ca         1 EIN       0.115100
      5 C1           5.7730     0.2470     1.3890 ca         1 EIN      -0.176500
      6 C2           4.4420     0.6870     1.2840 ca         1 EIN      -0.069000
      7 O1           7.6390    -0.9840     0.5620 os         1 EIN      -0.352100
      8 C3           8.3000    -1.8350    -0.3920 c3         1 EIN       0.154900
      9 C4           2.2120     0.7760     0.0700 cp         1 EIN      -0.033000
     10 C5           1.4010     0.9480     1.2200 ca         1 EIN      -0.131500
     11 C6           0.0690     1.3830     1.1160 ca         1 EIN      -0.010500
     12 C7          -0.4860     1.6590    -0.1480 ca         1 EIN      -0.211500
     13 C8           0.3020     1.4970    -1.3030 ca         1 EIN      -0.010500
     14 C9           1.6330     1.0610    -1.1920 ca         1 EIN      -0.131500
     15 S1          -2.2000     2.1990    -0.2980 sy         1 EIN       1.120600
     16 O2          -2.3350     3.0710    -1.4680 o          1 EIN      -0.593000
     17 O3          -2.7450     2.5650     1.0110 o          1 EIN      -0.593000
     18 N1          -2.9840     0.7920    -0.7280 n7         1 EIN      -0.890300
     19 C10         -2.8060    -0.4560     0.1090 c3         1 EIN      -0.103500
     20 C11         -1.9600    -1.5360    -0.6420 c3         1 EIN      -0.001700
     21 C12         -1.5650    -2.7190     0.2720 c3         1 EIN      -0.080100
     22 C13         -2.5770    -2.0220    -1.9780 c3         1 EIN      -0.080100
     23 P1          -4.4600    -0.9630     0.9110 p5         1 EIN       1.274500
     24 O4          -4.2900    -1.0930     2.3880 o          1 EIN      -0.885833
     25 O5          -5.3800     0.1720     0.5910 o          1 EIN      -0.885833
     26 O6          -5.0010    -2.2310     0.3390 o          1 EIN      -0.885833
     27 H15          3.6120    -0.8560    -1.6520 ha         1 EIN       0.120500
     28 H16          5.9350    -1.6190    -1.4760 ha         1 EIN       0.109500
     29 H1           6.3770     0.5540     2.2390 ha         1 EIN       0.109500
     30 H2           4.0410     1.3410     2.0540 ha         1 EIN       0.120500
     31 H31          9.3320    -2.0300    -0.0760 h1         1 EIN       0.033033
     32 H32          7.7830    -2.7990    -0.4780 h1         1 EIN       0.033033
     33 H33          8.3300    -1.3610    -1.3810 h1         1 EIN       0.033033
     34 H5           1.8020     0.7260     2.2060 ha         1 EIN       0.094000
     35 H6          -0.5300     1.4960     2.0180 ha         1 EIN       0.138500
     36 H8          -0.1170     1.7010    -2.2860 ha         1 EIN       0.138500
     37 H9           2.2240     0.9530    -2.0980 ha         1 EIN       0.094000
     38 HN1         -3.9360     1.1050    -0.4830 hn         1 EIN       0.570000
     39 H10         -2.2380    -0.1970     1.0110 h1         1 EIN       0.035700
     40 H11         -1.0120    -1.0540    -0.9130 hc         1 EIN      -0.026300
     41 H121        -2.4390    -3.3140     0.5570 hc         1 EIN       0.023200
     42 H122        -0.8580    -3.3810    -0.2420 hc         1 EIN       0.023200
     43 H123        -1.0800    -2.3560     1.1860 hc         1 EIN       0.023200
     44 H131        -3.5110    -2.5700    -1.8160 hc         1 EIN       0.023200
     45 H132        -2.7830    -1.1800    -2.6490 hc         1 EIN       0.023200
     46 H133        -1.8810    -2.6940    -2.4960 hc         1 EIN       0.023200
@<TRIPOS>BOND
     1     1     2 ar  
     2     1     6 ar  
     3     1     9 1   
     4     2     3 ar  
     5     2    27 1   
     6     3     4 ar  
     7     3    28 1   
     8     4     5 ar  
     9     4     7 1   
    10     5     6 ar  
    11     5    29 1   
    12     6    30 1   
    13     7     8 1   
    14     8    31 1   
    15     8    32 1   
    16     8    33 1   
    17     9    10 ar  
    18     9    14 ar  
    19    10    11 ar  
    20    10    34 1   
    21    11    12 ar  
    22    11    35 1   
    23    12    13 ar  
    24    12    15 1   
    25    13    14 ar  
    26    13    36 1   
    27    14    37 1   
    28    15    16 2   
    29    15    17 2   
    30    15    18 1   
    31    18    19 1   
    32    18    38 1   
    33    19    20 1   
    34    19    23 1   
    35    19    39 1   
    36    20    21 1   
    37    20    22 1   
    38    20    40 1   
    39    21    41 1   
    40    21    42 1   
    41    21    43 1   
    42    22    44 1   
    43    22    45 1   
    44    22    46 1   
    45    23    24 1   
    46    23    25 1   
    47    23    26 1   
@<TRIPOS>SUBSTRUCTURE
     1 EIN         1 TEMP              0 ****  ****    0 ROOT
