@<TRIPOS>MOLECULE
EIN
   46    47     1     0     0
SMALL
abcg2


@<TRIPOS>ATOM
      1 C14          3.6860     0.2820     0.1590 cp         1 EIN      -0.034000
      2 C15          4.2140    -0.5020    -0.8640 ca         1 EIN      -0.069000
      3 C16          5.5380    -0.9160    -0.8600 ca         1 EIN      -0.176500
      4 C17          6.3770    -0.5450     0.1880 ca         1 EIN       0.115100
      5 C1           5.8630     0.2400     1.2230 ca         1 EIN      -0.176500
      6 C2           4.5420     0.6410     1.2050 ca         1 EIN      -0.069000
      7 O1           7.6720    -0.8900     0.2860 os         1 EIN      -0.352100
      8 C3           8.2490    -1.6550    -0.7550 c3         1 EIN       0.154900
      9 C4           2.2790     0.7200     0.1380 cp         1 EIN      -0.033000
     10 C5           1.5490     0.8480     1.3200 ca         1 EIN      -0.131500
     11 C6           0.2280     1.2670     1.3040 ca         1 EIN      -0.010500
     12 C7          -0.3820     1.5520     0.0940 ca         1 EIN      -0.211500
     13 C8           0.3220     1.4310    -1.0980 ca         1 EIN      -0.010500
     14 C9           1.6420     1.0240    -1.0700 ca         1 EIN      -0.131500
     15 S1          -2.0830     2.0430     0.0360 sy         1 EIN       1.120600
     16 O2          -2.2310     3.1060    -0.9580 o          1 EIN      -0.593000
     17 O3          -2.4780     2.3630     1.4070 o          1 EIN      -0.593000
     18 N1          -2.8060     0.7320    -0.5770 n7         1 EIN      -0.890300
     19 C10         -2.9630    -0.4910     0.2270 c3         1 EIN      -0.103500
     20 C11         -1.9650    -1.5580    -0.2340 c3         1 EIN      -0.001700
     21 C12         -1.9510    -2.7380     0.7300 c3         1 EIN      -0.080100
     22 C13         -2.1900    -2.0020    -1.6750 c3         1 EIN      -0.080100
     23 P1          -4.8350    -0.8660     0.1020 p5         1 EIN       1.274500
     24 O4          -5.4280    -0.3640     1.4170 o          1 EIN      -0.885833
     25 O5          -5.2130     0.0160    -1.1160 o          1 EIN      -0.885833
     26 O6          -5.0330    -2.3620    -0.1400 o          1 EIN      -0.885833
     27 H15          3.5810    -0.8230    -1.6820 ha         1 EIN       0.120500
     28 H16          5.8920    -1.5300    -1.6770 ha         1 EIN       0.109500
     29 H1           6.5110     0.5430     2.0360 ha         1 EIN       0.109500
     30 H2           4.1810     1.2660     2.0120 ha         1 EIN       0.120500
     31 H31          9.2900    -1.8080    -0.4840 h1         1 EIN       0.033033
     32 H32          7.7670    -2.6310    -0.8610 h1         1 EIN       0.033033
     33 H33          8.2060    -1.1340    -1.7140 h1         1 EIN       0.033033
     34 H5           2.0060     0.6010     2.2700 ha         1 EIN       0.094000
     35 H6          -0.3180     1.3550     2.2340 ha         1 EIN       0.138500
     36 H8          -0.1470     1.6590    -2.0460 ha         1 EIN       0.138500
     37 H9           2.1900     0.9600    -2.0010 ha         1 EIN       0.094000
     38 HN1         -3.7220     0.9050    -1.0500 hn         1 EIN       0.570000
     39 H10         -2.7600    -0.2780     1.2820 h1         1 EIN       0.035700
     40 H11         -0.9700    -1.0990    -0.1920 hc         1 EIN      -0.026300
     41 H121        -2.9200    -3.2370     0.7390 hc         1 EIN       0.023200
     42 H122        -1.1900    -3.4700     0.4500 hc         1 EIN       0.023200
     43 H123        -1.7300    -2.4100     1.7480 hc         1 EIN       0.023200
     44 H131        -3.1540    -2.4980    -1.7770 hc         1 EIN       0.023200
     45 H132        -2.1680    -1.1470    -2.3530 hc         1 EIN       0.023200
     46 H133        -1.4090    -2.6960    -1.9940 hc         1 EIN       0.023200
@<TRIPOS>BOND
     1     1     2 ar  
     2     1     6 ar  
     3     1     9 1   
     4     2     3 ar  
     5     2    27 1   
     6     3     4 ar  
     7     3    28 1   
     8     4     5 ar  
     9     4     7 1   
    10     5     6 ar  
    11     5    29 1   
    12     6    30 1   
    13     7     8 1   
    14     8    31 1   
    15     8    32 1   
    16     8    33 1   
    17     9    10 ar  
    18     9    14 ar  
    19    10    11 ar  
    20    10    34 1   
    21    11    12 ar  
    22    11    35 1   
    23    12    13 ar  
    24    12    15 1   
    25    13    14 ar  
    26    13    36 1   
    27    14    37 1   
    28    15    16 2   
    29    15    17 2   
    30    15    18 1   
    31    18    19 1   
    32    18    38 1   
    33    19    20 1   
    34    19    23 1   
    35    19    39 1   
    36    20    21 1   
    37    20    22 1   
    38    20    40 1   
    39    21    41 1   
    40    21    42 1   
    41    21    43 1   
    42    22    44 1   
    43    22    45 1   
    44    22    46 1   
    45    23    24 1   
    46    23    25 1   
    47    23    26 1   
@<TRIPOS>SUBSTRUCTURE
     1 EIN         1 TEMP              0 ****  ****    0 ROOT
