@<TRIPOS>MOLECULE
EIO
   42    45     1     0     0
SMALL
No Charge or Current Charge


@<TRIPOS>ATOM
      1 C13        131.5960  -170.6440   114.2340 c3         1 EIO      -0.109100
      2 C15       -127.3610  -171.7120   116.0170 ca         1 EIO       0.317300
      3 C17        126.9480  -172.9780   113.4660 c3         1 EIO       0.023900
      4 C20       -126.5790  -170.6960   120.2420 cx         1 EIO      -0.034400
      5 C03        127.4990  -170.0050   119.2460 cx         1 EIO      -0.298300
      6 C04       -127.9340  -170.7120   118.0010 ca         1 EIO       0.153300
      7 C05        129.2810  -171.0000   117.7490 ca         1 EIO      -0.255000
      8 C06       -129.5970  -171.6820   116.5610 ca         1 EIO       0.431900
      9 C08        131.3570  -172.0840   114.7620 c6         1 EIO       0.191500
     10 C09       -132.6100  -172.9920   114.5580 c6         1 EIO       0.138600
     11 C11        133.2730  -172.7970   116.8530 c6         1 EIO       0.140600
     12 C12       -132.0550  -171.8900   117.1930 c6         1 EIO       0.172800
     13 C19        128.0180  -170.4230   120.6150 cx         1 EIO      -0.034400
     14 N01       -126.5790  -167.2300   119.9130 n2         1 EIO      -0.639900
     15 N07        130.9290  -172.0220   116.2050 nh         1 EIO      -0.739300
     16 N14       -128.6280  -172.0320   115.6950 nb         1 EIO      -0.267000
     17 N18        126.9720  -171.0660   117.1330 nb         1 EIO      -0.323000
     18 N21       -128.2320  -167.4960   117.7820 n5         1 EIO      -0.419000
     19 O10        133.6680  -172.6350   115.4740 os         1 EIO      -0.420000
     20 O22       -128.7690  -167.8190   119.1440 op         1 EIO      -0.312700
     21 S02        127.2210  -168.1960   118.8990 s6         1 EIO       1.133200
     22 H1        -130.6920  -170.0320   114.3340 hc         1 EIO       0.053700
     23 H2         131.8700  -170.6560   113.1720 hc         1 EIO       0.053700
     24 H3        -132.4030  -170.1430   114.7810 hc         1 EIO       0.053700
     25 H4         126.2230  -173.2930   112.7060 h1         1 EIO       0.082700
     26 H5        -127.4950  -173.8590   113.8250 h1         1 EIO       0.082700
     27 H6         127.6550  -172.2710   113.0140 h1         1 EIO       0.082700
     28 H7        -126.2960  -171.7290   120.0480 hc         1 EIO       0.120950
     29 H8         125.8090  -170.1100   120.7430 hc         1 EIO       0.120950
     30 H9        -130.0460  -170.6940   118.4540 ha         1 EIO       0.142000
     31 H10        130.5600  -172.5270   114.1450 h1         1 EIO       0.093700
     32 H11       -132.9780  -172.9000   113.5260 h1         1 EIO       0.068200
     33 H12        132.3330  -174.0440   114.7210 h1         1 EIO       0.068200
     34 H13       -133.0130  -173.8500   117.0340 h1         1 EIO       0.065200
     35 H14        134.1200  -172.5410   117.5050 h1         1 EIO       0.065200
     36 H15       -132.3930  -170.8450   117.2380 h1         1 EIO       0.061200
     37 H16        131.7150  -172.1680   118.2010 h1         1 EIO       0.061200
     38 H17       -128.6900  -171.2770   120.6740 hc         1 EIO       0.120950
     39 H18        128.2090  -169.6530   121.3600 hc         1 EIO       0.120950
     40 H19       -127.0080  -166.3250   119.7000 hn         1 EIO       0.517400
     41 H21        128.4750  -168.2860   117.1780 hn         1 EIO       0.381000
     42 S16       -126.0600  -172.1680   114.8760 ss         1 EIO      -0.272300
@<TRIPOS>BOND
     1     1     9 1   
     2     1    22 1   
     3     1    23 1   
     4     1    24 1   
     5     2    16 ar  
     6     2    17 ar  
     7     2    42 1   
     8     3    25 1   
     9     3    26 1   
    10     3    27 1   
    11     3    42 1   
    12     4     5 1   
    13     4    13 1   
    14     4    28 1   
    15     4    29 1   
    16     5     6 1   
    17     5    13 1   
    18     5    21 1   
    19     6     7 ar  
    20     6    17 ar  
    21     7     8 ar  
    22     7    30 1   
    23     8    15 1   
    24     8    16 ar  
    25     9    10 1   
    26     9    15 1   
    27     9    31 1   
    28    10    19 1   
    29    10    32 1   
    30    10    33 1   
    31    11    12 1   
    32    11    19 1   
    33    11    34 1   
    34    11    35 1   
    35    12    15 1   
    36    12    36 1   
    37    12    37 1   
    38    13    38 1   
    39    13    39 1   
    40    14    21 2   
    41    14    40 1   
    42    18    20 1   
    43    18    21 2   
    44    18    41 1   
    45    20    21 1   
@<TRIPOS>SUBSTRUCTURE
     1 EIO         1 TEMP              0 ****  ****    0 ROOT
