@<TRIPOS>MOLECULE
EIO
   42    45     1     0     0
SMALL
bcc


@<TRIPOS>ATOM
      1 C13       -131.9610  -171.2190   114.0580 c3         1 EIO      -0.109100
      2 C15       -127.6920  -171.0990   115.8490 ca         1 EIO       0.843300
      3 C17       -127.3270  -171.8870   113.2200 c3         1 EIO      -0.024000
      4 C20       -127.1610  -170.8590   120.3110 cx         1 EIO      -0.034400
      5 C03       -127.7290  -169.9280   119.2550 cx         1 EIO      -0.187500
      6 C04       -128.2090  -170.4660   117.9460 ca         1 EIO       0.481600
      7 C05       -129.5130  -170.8370   117.7730 ca         1 EIO      -0.403600
      8 C06       -129.8410  -171.4380   116.5280 ca         1 EIO       0.760200
      9 C08       -131.3900  -172.3640   114.8860 c6         1 EIO       0.191500
     10 C09       -132.3250  -173.5610   114.9750 c6         1 EIO       0.115400
     11 C11       -133.0930  -172.9890   117.0690 c6         1 EIO       0.117400
     12 C12       -132.1960  -171.7660   117.1400 c6         1 EIO       0.172800
     13 C19       -128.4300  -170.1480   120.5690 cx         1 EIO      -0.034400
     14 N01       -126.6060  -167.7920   120.4200 n2         1 EIO      -0.639900
     15 N07       -131.0580  -171.9190   116.2440 nh         1 EIO      -0.739300
     16 N14       -128.8990  -171.5350   115.5800 nb         1 EIO      -0.793000
     17 N18       -127.2710  -170.5860   117.0000 nb         1 EIO      -0.849000
     18 N21       -125.9300  -168.2740   117.7530 n5         1 EIO      -0.408500
     19 O10       -133.4690  -173.2880   115.7480 os         1 EIO      -0.373600
     20 O22       -127.3470  -167.6750   117.7650 op         1 EIO      -0.272900
     21 S02       -126.8660  -168.3990   119.1000 s6         1 EIO       1.022400
     22 H1        -131.2550  -170.3900   114.0050 hc         1 EIO       0.053700
     23 H2        -132.1520  -171.5590   113.0400 hc         1 EIO       0.053700
     24 H3        -132.9000  -170.8420   114.4630 hc         1 EIO       0.053700
     25 H4        -126.5940  -171.9640   112.4190 h1         1 EIO       0.082700
     26 H5        -127.7040  -172.8790   113.4560 h1         1 EIO       0.082700
     27 H6        -128.1430  -171.2460   112.8960 h1         1 EIO       0.082700
     28 H7        -127.1850  -171.9040   120.0300 hc         1 EIO       0.120950
     29 H8        -126.2710  -170.5480   120.8430 hc         1 EIO       0.120950
     30 H9        -130.2420  -170.6680   118.5470 ha         1 EIO       0.160000
     31 H10       -130.4710  -172.7110   114.4170 h1         1 EIO       0.093700
     32 H11       -132.6580  -173.8330   113.9720 h1         1 EIO       0.068200
     33 H12       -131.7760  -174.4180   115.3930 h1         1 EIO       0.068200
     34 H13       -132.5730  -173.8440   117.5240 h1         1 EIO       0.065200
     35 H14       -134.0010  -172.8000   117.6430 h1         1 EIO       0.065200
     36 H15       -132.7570  -170.8620   116.8830 h1         1 EIO       0.061200
     37 H16       -131.8640  -171.6630   118.1700 h1         1 EIO       0.061200
     38 H17       -129.3620  -170.6930   120.5100 hc         1 EIO       0.120950
     39 H18       -128.4300  -169.3370   121.2840 hc         1 EIO       0.120950
     40 H19       -126.0160  -166.9640   120.4750 hn         1 EIO       0.517400
     41 H21       -126.0340  -169.1570   117.1980 hn         1 EIO       0.330700
     42 S16       -126.4490  -171.1730   114.6220 ss         1 EIO      -0.224400
@<TRIPOS>BOND
     1     1     9 1   
     2     1    22 1   
     3     1    23 1   
     4     1    24 1   
     5     2    16 ar  
     6     2    17 ar  
     7     2    42 1   
     8     3    25 1   
     9     3    26 1   
    10     3    27 1   
    11     3    42 1   
    12     4     5 1   
    13     4    13 1   
    14     4    28 1   
    15     4    29 1   
    16     5     6 1   
    17     5    13 1   
    18     5    21 1   
    19     6     7 ar  
    20     6    17 ar  
    21     7     8 ar  
    22     7    30 1   
    23     8    15 1   
    24     8    16 ar  
    25     9    10 1   
    26     9    15 1   
    27     9    31 1   
    28    10    19 1   
    29    10    32 1   
    30    10    33 1   
    31    11    12 1   
    32    11    19 1   
    33    11    34 1   
    34    11    35 1   
    35    12    15 1   
    36    12    36 1   
    37    12    37 1   
    38    13    38 1   
    39    13    39 1   
    40    14    21 2   
    41    14    40 1   
    42    18    20 1   
    43    18    21 2   
    44    18    41 1   
    45    20    21 1   
@<TRIPOS>SUBSTRUCTURE
     1 EIO         1 TEMP              0 ****  ****    0 ROOT
