@<TRIPOS>MOLECULE
EIQ
   39    41     1     0     0
SMALL
No Charge or Current Charge


@<TRIPOS>ATOM
      1 C11        -19.5460     3.2750   -15.5600 ca         1 EIQ      -0.095500
      2 C4         -19.7980     4.5480   -15.0180 ca         1 EIQ      -0.076300
      3 C5         -18.7580     5.6550   -15.1330 c3         1 EIQ       0.010200
      4 C6         -18.9480     6.4640   -16.4080 ca         1 EIQ      -0.040300
      5 C7         -18.3080     6.0960   -17.6050 ca         1 EIQ      -0.160000
      6 C8         -18.5170     6.8660   -18.7630 ca         1 EIQ       0.336900
      7 N1         -22.6620     1.4500   -14.7340 nu         1 EIQ      -0.865100
      8 C1         -21.7380     2.4930   -14.8140 ca         1 EIQ       0.232000
      9 O1         -24.9040     2.2950   -14.0230 o          1 EIQ      -0.528000
     10 N2         -19.3140     7.9600   -18.7870 nb         1 EIQ      -0.663000
     11 C2         -21.9920     3.7730   -14.2810 ca         1 EIQ      -0.101000
     12 O2         -24.2770    -0.1910   -13.8960 o          1 EIQ      -0.528000
     13 C3         -21.0290     4.7930   -14.3810 ca         1 EIQ      -0.095500
     14 C10        -19.7780     7.5980   -16.4350 ca         1 EIQ      -0.160000
     15 C12        -20.5110     2.2570   -15.4580 ca         1 EIQ      -0.101000
     16 C13        -23.2850     1.4550   -12.0390 ca         1 EIQ      -0.310500
     17 C14        -22.4200     0.4820   -11.4960 ca         1 EIQ      -0.013500
     18 C15        -21.8800     0.6610   -10.2110 ca         1 EIQ      -0.131000
     19 C16        -22.1990     1.8080    -9.4640 ca         1 EIQ      -0.055000
     20 C17        -23.0610     2.7780   -10.0030 ca         1 EIQ      -0.131000
     21 C18        -23.6050     2.6050   -11.2880 ca         1 EIQ      -0.013500
     22 C9         -19.9320     8.3120   -17.6360 ca         1 EIQ       0.336900
     23 S1         -23.9610     1.2240   -13.6900 sy         1 EIQ       1.141600
     24 H10        -18.6020     3.0720   -16.0620 ha         1 EIQ       0.118000
     25 H4         -17.7490     5.2260   -15.1080 hc         1 EIQ       0.060200
     26 H5         -18.8140     6.3150   -14.2590 hc         1 EIQ       0.060200
     27 H6         -17.6590     5.2270   -17.6470 ha         1 EIQ       0.121000
     28 H7         -18.0310     6.5990   -19.7010 h4         1 EIQ       0.019100
     29 H1         -22.3700     0.5310   -15.0350 hn         1 EIQ       0.485000
     30 H2         -22.9350     3.9930   -13.7930 ha         1 EIQ       0.129500
     31 H3         -21.2430     5.7750   -13.9650 ha         1 EIQ       0.118000
     32 H9         -20.3020     7.9270   -15.5420 ha         1 EIQ       0.121000
     33 H11        -20.2990     1.2800   -15.8820 ha         1 EIQ       0.129500
     34 H12        -22.1630    -0.4100   -12.0670 ha         1 EIQ       0.137000
     35 H13        -21.2130    -0.0890    -9.7940 ha         1 EIQ       0.120000
     36 H14        -21.7800     1.9450    -8.4690 ha         1 EIQ       0.117000
     37 H15        -23.3090     3.6650    -9.4250 ha         1 EIQ       0.120000
     38 H16        -24.2730     3.3660   -11.6900 ha         1 EIQ       0.137000
     39 H8         -20.5700     9.1940   -17.6780 h4         1 EIQ       0.019100
@<TRIPOS>BOND
     1     1     2 ar  
     2     1    15 ar  
     3     1    24 1   
     4     2     3 1   
     5     2    13 ar  
     6     3     4 1   
     7     3    25 1   
     8     3    26 1   
     9     4     5 ar  
    10     4    14 ar  
    11     5     6 ar  
    12     5    27 1   
    13     6    10 ar  
    14     6    28 1   
    15     7     8 1   
    16     7    23 1   
    17     7    29 1   
    18     8    11 ar  
    19     8    15 ar  
    20     9    23 2   
    21    10    22 ar  
    22    11    13 ar  
    23    11    30 1   
    24    12    23 2   
    25    13    31 1   
    26    14    22 ar  
    27    14    32 1   
    28    15    33 1   
    29    16    17 ar  
    30    16    21 ar  
    31    16    23 1   
    32    17    18 ar  
    33    17    34 1   
    34    18    19 ar  
    35    18    35 1   
    36    19    20 ar  
    37    19    36 1   
    38    20    21 ar  
    39    20    37 1   
    40    21    38 1   
    41    22    39 1   
@<TRIPOS>SUBSTRUCTURE
     1 EIQ         1 TEMP              0 ****  ****    0 ROOT
