@<TRIPOS>MOLECULE
EIQ
   39    41     1     0     0
SMALL
abcg2


@<TRIPOS>ATOM
      1 C11        -20.2080     4.1250   -14.6100 ca         1 EIQ      -0.095500
      2 C4         -20.7540     5.3890   -14.8180 ca         1 EIQ      -0.076300
      3 C5         -19.8610     6.5960   -14.9590 c3         1 EIQ       0.010200
      4 C6         -19.2740     6.6610   -16.3440 ca         1 EIQ      -0.040300
      5 C7         -17.9710     6.2560   -16.6020 ca         1 EIQ      -0.160000
      6 C8         -17.4930     6.2980   -17.9040 ca         1 EIQ       0.336900
      7 N1         -23.2410     1.9930   -14.6130 nu         1 EIQ      -0.865100
      8 C1         -22.3980     3.1330   -14.6670 ca         1 EIQ       0.232000
      9 O1         -24.7160     2.9540   -12.8320 o          1 EIQ      -0.528000
     10 N2         -18.2150     6.7100   -18.9390 nb         1 EIQ      -0.663000
     11 C2         -22.9540     4.3870   -14.8820 ca         1 EIQ      -0.101000
     12 O2         -24.9080     0.5270   -13.4930 o          1 EIQ      -0.528000
     13 C3         -22.1350     5.5030   -14.9450 ca         1 EIQ      -0.095500
     14 C10        -20.0310     7.0940   -17.4280 ca         1 EIQ      -0.160000
     15 C12        -21.0200     3.0060   -14.5220 ca         1 EIQ      -0.101000
     16 C13        -22.8940     1.2760   -11.9880 ca         1 EIQ      -0.310500
     17 C14        -22.5510    -0.0580   -11.8060 ca         1 EIQ      -0.013500
     18 C15        -21.5750    -0.3790   -10.8760 ca         1 EIQ      -0.131000
     19 C16        -20.9520     0.6240   -10.1440 ca         1 EIQ      -0.055000
     20 C17        -21.3030     1.9530   -10.3370 ca         1 EIQ      -0.131000
     21 C18        -22.2810     2.2890   -11.2610 ca         1 EIQ      -0.013500
     22 C9         -19.4620     7.1000   -18.6910 ca         1 EIQ       0.336900
     23 S1         -24.0980     1.6990   -13.2160 sy         1 EIQ       1.141600
     24 H10        -19.1350     4.0110   -14.5060 ha         1 EIQ       0.118000
     25 H4         -19.0560     6.5540   -14.2230 hc         1 EIQ       0.060200
     26 H5         -20.4340     7.5040   -14.7610 hc         1 EIQ       0.060200
     27 H6         -17.3280     5.9100   -15.8020 ha         1 EIQ       0.121000
     28 H7         -16.4770     5.9840   -18.1160 h4         1 EIQ       0.019100
     29 H1         -22.8160     1.1400   -14.9670 hn         1 EIQ       0.485000
     30 H2         -24.0220     4.4900   -15.0150 ha         1 EIQ       0.129500
     31 H3         -22.5790     6.4780   -15.1100 ha         1 EIQ       0.118000
     32 H9         -21.0540     7.4270   -17.2970 ha         1 EIQ       0.121000
     33 H11        -20.5830     2.0310   -14.3450 ha         1 EIQ       0.129500
     34 H12        -23.0370    -0.8400   -12.3730 ha         1 EIQ       0.137000
     35 H13        -21.3050    -1.4150   -10.7210 ha         1 EIQ       0.120000
     36 H14        -20.1910     0.3670    -9.4190 ha         1 EIQ       0.117000
     37 H15        -20.8200     2.7320    -9.7630 ha         1 EIQ       0.120000
     38 H16        -22.5600     3.3250   -11.4020 ha         1 EIQ       0.137000
     39 H8         -20.0420     7.4390   -19.5430 h4         1 EIQ       0.019100
@<TRIPOS>BOND
     1     1     2 ar  
     2     1    15 ar  
     3     1    24 1   
     4     2     3 1   
     5     2    13 ar  
     6     3     4 1   
     7     3    25 1   
     8     3    26 1   
     9     4     5 ar  
    10     4    14 ar  
    11     5     6 ar  
    12     5    27 1   
    13     6    10 ar  
    14     6    28 1   
    15     7     8 1   
    16     7    23 1   
    17     7    29 1   
    18     8    11 ar  
    19     8    15 ar  
    20     9    23 2   
    21    10    22 ar  
    22    11    13 ar  
    23    11    30 1   
    24    12    23 2   
    25    13    31 1   
    26    14    22 ar  
    27    14    32 1   
    28    15    33 1   
    29    16    17 ar  
    30    16    21 ar  
    31    16    23 1   
    32    17    18 ar  
    33    17    34 1   
    34    18    19 ar  
    35    18    35 1   
    36    19    20 ar  
    37    19    36 1   
    38    20    21 ar  
    39    20    37 1   
    40    21    38 1   
    41    22    39 1   
@<TRIPOS>SUBSTRUCTURE
     1 EIQ         1 TEMP              0 ****  ****    0 ROOT
