@<TRIPOS>MOLECULE
EIS
  117   117     1     0     0
SMALL
No Charge or Current Charge


@<TRIPOS>ATOM
      1 C43          4.6220    -1.7810    -0.8920 c6         1 EIS       0.355300
      2 O            3.2100    -1.7590    -0.6090 os         1 EIS      -0.463000
      3 C44          5.4450    -1.4980     0.4050 c6         1 EIS       0.145300
      4 O3           5.0550    -0.2430     1.0220 oh         1 EIS      -0.684000
      5 C45          6.9800    -1.5540     0.0770 c6         1 EIS       0.245300
      6 C46          7.3100    -2.9310    -0.5940 c6         1 EIS       0.111300
      7 O5           7.2170    -3.9930     0.3850 oh         1 EIS      -0.687000
      8 C47          6.3670    -3.1540    -1.8220 c6         1 EIS       0.145300
      9 C48          6.6110    -4.5280    -2.5310 c3         1 EIS       0.163600
     10 O7           5.7960    -4.7130    -3.7060 oh         1 EIS      -0.714000
     11 O6           4.9780    -3.0710    -1.4180 os         1 EIS      -0.470000
     12 O1           0.5950    -4.3130    -1.1610 oh         1 EIS      -0.637000
     13 C2           0.4890    -3.1100    -0.3950 c3         1 EIS       0.191500
     14 C1           0.8640    -1.8740    -1.2670 c3         1 EIS       0.079700
     15 N            0.5760    -0.6050    -0.5710 ns         1 EIS      -0.501900
     16 C            2.3370    -1.9020    -1.7500 c3         1 EIS       0.158600
     17 C3          -0.9260    -3.0500     0.1350 c2         1 EIS      -0.246200
     18 C4          -1.2910    -3.2970     1.4070 c2         1 EIS      -0.214200
     19 C5          -2.6930    -3.2420     1.9940 c3         1 EIS      -0.040200
     20 C6          -3.8180    -2.9000     0.9890 c3         1 EIS      -0.073400
     21 C7          -5.2210    -2.8820     1.6360 c3         1 EIS      -0.075400
     22 C8          -6.3470    -2.5520     0.6320 c3         1 EIS      -0.074400
     23 C9          -7.7490    -2.5380     1.2800 c3         1 EIS      -0.074400
     24 C10         -8.8770    -2.2150     0.2760 c3         1 EIS      -0.074400
     25 C11        -10.2770    -2.1940     0.9270 c3         1 EIS      -0.074400
     26 C12        -11.4060    -1.8700    -0.0760 c3         1 EIS      -0.074400
     27 C13        -12.8050    -1.8380     0.5770 c3         1 EIS      -0.074400
     28 C14        -13.9330    -1.5090    -0.4250 c3         1 EIS      -0.074400
     29 C15        -15.3320    -1.4690     0.2290 c3         1 EIS      -0.075400
     30 C16        -16.4600    -1.1350    -0.7730 c3         1 EIS      -0.075400
     31 C17        -17.8550    -1.0910    -0.1200 c3         1 EIS      -0.088100
     32 C29          1.1610    14.2060     0.3810 c3         1 EIS      -0.088100
     33 C28          1.1750    12.9280    -0.4800 c3         1 EIS      -0.074400
     34 C27          0.7860    11.6610     0.3120 c3         1 EIS      -0.075400
     35 C26          0.8060    10.3790    -0.5480 c3         1 EIS      -0.074400
     36 C25          0.4200     9.1120     0.2470 c3         1 EIS      -0.074400
     37 C24          0.4470     7.8270    -0.6100 c3         1 EIS      -0.074400
     38 C23          0.0660     6.5610     0.1880 c3         1 EIS      -0.074400
     39 C22          0.1000     5.2740    -0.6650 c3         1 EIS      -0.073400
     40 C21         -0.2750     4.0070     0.1350 c3         1 EIS      -0.076400
     41 C20         -0.2340     2.7200    -0.7190 c3         1 EIS      -0.065400
     42 C19         -0.5970     1.4470     0.0820 c3         1 EIS      -0.157400
     43 C18         -0.5200     0.1950    -0.7980 c          1 EIS       0.603100
     44 O2          -1.3790    -0.0820    -1.6230 o          1 EIS      -0.618100
     45 O4           7.7560    -1.4230     1.2930 os         1 EIS      -0.568700
     46 O10          8.5310     0.8940     1.0270 o          1 EIS      -0.707533
     47 O9           9.6890    -0.6400     2.5790 o          1 EIS      -0.707533
     48 O8           9.8720    -0.9730     0.1380 o          1 EIS      -0.707533
     49 H1           4.8470    -1.0050    -1.6400 h2         1 EIS       0.024700
     50 H2           5.2270    -2.3210     1.1020 h1         1 EIS       0.076700
     51 H3           4.0710    -0.2560     1.0580 ho         1 EIS       0.488000
     52 H4           7.2150    -0.7380    -0.6220 h1         1 EIS       0.056700
     53 H5           8.3410    -2.8760    -0.9770 h1         1 EIS       0.077700
     54 H6           7.5630    -3.6000     1.2220 ho         1 EIS       0.489000
     55 H7           6.5630    -2.3640    -2.5620 h1         1 EIS       0.049700
     56 H8           7.6740    -4.5890    -2.8020 h1         1 EIS       0.028200
     57 H9           6.4130    -5.3320    -1.8090 h1         1 EIS       0.028200
     58 H10          5.9430    -5.6380    -4.0130 ho         1 EIS       0.493000
     59 H11          0.1920    -5.0210    -0.6140 ho         1 EIS       0.434000
     60 H12          1.1850    -3.1420     0.4570 h1         1 EIS       0.097700
     61 H13          0.2400    -1.9170    -2.1690 h1         1 EIS       0.080700
     62 H14          1.2310    -0.2920     0.1340 hn         1 EIS       0.324500
     63 H15          2.4960    -1.0800    -2.4590 h1         1 EIS       0.047700
     64 H16          2.5310    -2.8440    -2.2800 h1         1 EIS       0.047700
     65 H17         -1.6610    -2.7730    -0.6220 ha         1 EIS       0.175000
     66 H20         -0.5300    -3.5680     2.1430 ha         1 EIS       0.170000
     67 H21         -2.9230    -4.2110     2.4560 hc         1 EIS       0.041700
     68 H22         -2.7140    -2.5050     2.8060 hc         1 EIS       0.041700
     69 H23         -3.6180    -1.9190     0.5420 hc         1 EIS       0.042200
     70 H24         -3.8110    -3.6370     0.1750 hc         1 EIS       0.042200
     71 H25         -5.4200    -3.8600     2.0910 hc         1 EIS       0.035700
     72 H26         -5.2330    -2.1420     2.4470 hc         1 EIS       0.035700
     73 H27         -6.1500    -1.5730     0.1770 hc         1 EIS       0.038700
     74 H28         -6.3330    -3.2910    -0.1800 hc         1 EIS       0.038700
     75 H29         -7.9440    -3.5160     1.7390 hc         1 EIS       0.036200
     76 H30         -7.7630    -1.7960     2.0890 hc         1 EIS       0.036200
     77 H31         -8.6790    -1.2400    -0.1860 hc         1 EIS       0.037700
     78 H32         -8.8650    -2.9600    -0.5300 hc         1 EIS       0.037700
     79 H33        -10.4750    -3.1690     1.3890 hc         1 EIS       0.036200
     80 H34        -10.2880    -1.4490     1.7330 hc         1 EIS       0.036200
     81 H35        -11.2050    -0.8980    -0.5430 hc         1 EIS       0.037200
     82 H36        -11.4000    -2.6190    -0.8780 hc         1 EIS       0.037200
     83 H37        -13.0090    -2.8110     1.0420 hc         1 EIS       0.036700
     84 H38        -12.8100    -1.0920     1.3820 hc         1 EIS       0.036700
     85 H39        -13.7270    -0.5370    -0.8920 hc         1 EIS       0.036700
     86 H40        -13.9320    -2.2570    -1.2270 hc         1 EIS       0.036700
     87 H41        -15.5400    -2.4410     0.6940 hc         1 EIS       0.036700
     88 H42        -15.3330    -0.7220     1.0330 hc         1 EIS       0.036700
     89 H43        -16.2550    -0.1640    -1.2400 hc         1 EIS       0.036700
     90 H44        -16.4660    -1.8820    -1.5760 hc         1 EIS       0.036700
     91 H45        -17.8920    -0.3270     0.6660 hc         1 EIS       0.030033
     92 H46        -18.6200    -0.8520    -0.8680 hc         1 EIS       0.030033
     93 H47        -18.1050    -2.0610     0.3280 hc         1 EIS       0.030033
     94 H48          0.1600    14.3840     0.7940 hc         1 EIS       0.030033
     95 H49          1.8700    14.1210     1.2130 hc         1 EIS       0.030033
     96 H50          1.4420    15.0770    -0.2230 hc         1 EIS       0.030033
     97 H51          0.4830    13.0580    -1.3220 hc         1 EIS       0.035700
     98 H52          2.1780    12.7970    -0.9060 hc         1 EIS       0.035700
     99 H53          1.4760    11.5390     1.1560 hc         1 EIS       0.037200
    100 H54         -0.2170    11.7950     0.7360 hc         1 EIS       0.037200
    101 H55          0.1150    10.4990    -1.3920 hc         1 EIS       0.036200
    102 H56          1.8100    10.2460    -0.9730 hc         1 EIS       0.036200
    103 H57          1.1090     8.9950     1.0930 hc         1 EIS       0.037200
    104 H58         -0.5850     9.2430     0.6670 hc         1 EIS       0.037200
    105 H59         -0.2430     7.9420    -1.4550 hc         1 EIS       0.036700
    106 H60          1.4520     7.6980    -1.0330 hc         1 EIS       0.036700
    107 H61          0.7550     6.4490     1.0360 hc         1 EIS       0.037700
    108 H62         -0.9400     6.6890     0.6080 hc         1 EIS       0.037700
    109 H63         -0.5910     5.3840    -1.5100 hc         1 EIS       0.038700
    110 H64          1.1050     5.1490    -1.0870 hc         1 EIS       0.038700
    111 H65          0.4140     3.8990     0.9820 hc         1 EIS       0.038200
    112 H66         -1.2820     4.1290     0.5540 hc         1 EIS       0.038200
    113 H67         -0.9260     2.8250    -1.5640 hc         1 EIS       0.053200
    114 H68          0.7710     2.6020    -1.1440 hc         1 EIS       0.053200
    115 H69          0.1000     1.3580     0.9240 hc         1 EIS       0.057200
    116 H70         -1.6220     1.5520     0.4570 hc         1 EIS       0.057200
    117 S            9.0770    -0.4500     1.2570 s6         1 EIS       1.496300
@<TRIPOS>BOND
     1     1     2 1   
     2     1     3 1   
     3     1    11 1   
     4     1    49 1   
     5     2    16 1   
     6     3     4 1   
     7     3     5 1   
     8     3    50 1   
     9     4    51 1   
    10     5     6 1   
    11     5    45 1   
    12     5    52 1   
    13     6     7 1   
    14     6     8 1   
    15     6    53 1   
    16     7    54 1   
    17     8     9 1   
    18     8    11 1   
    19     8    55 1   
    20     9    10 1   
    21     9    56 1   
    22     9    57 1   
    23    10    58 1   
    24    12    13 1   
    25    12    59 1   
    26    13    14 1   
    27    13    17 1   
    28    13    60 1   
    29    14    15 1   
    30    14    16 1   
    31    14    61 1   
    32    15    43 1   
    33    15    62 1   
    34    16    63 1   
    35    16    64 1   
    36    17    18 2   
    37    17    65 1   
    38    18    19 1   
    39    18    66 1   
    40    19    20 1   
    41    19    67 1   
    42    19    68 1   
    43    20    21 1   
    44    20    69 1   
    45    20    70 1   
    46    21    22 1   
    47    21    71 1   
    48    21    72 1   
    49    22    23 1   
    50    22    73 1   
    51    22    74 1   
    52    23    24 1   
    53    23    75 1   
    54    23    76 1   
    55    24    25 1   
    56    24    77 1   
    57    24    78 1   
    58    25    26 1   
    59    25    79 1   
    60    25    80 1   
    61    26    27 1   
    62    26    81 1   
    63    26    82 1   
    64    27    28 1   
    65    27    83 1   
    66    27    84 1   
    67    28    29 1   
    68    28    85 1   
    69    28    86 1   
    70    29    30 1   
    71    29    87 1   
    72    29    88 1   
    73    30    31 1   
    74    30    89 1   
    75    30    90 1   
    76    31    91 1   
    77    31    92 1   
    78    31    93 1   
    79    32    33 1   
    80    32    94 1   
    81    32    95 1   
    82    32    96 1   
    83    33    34 1   
    84    33    97 1   
    85    33    98 1   
    86    34    35 1   
    87    34    99 1   
    88    34   100 1   
    89    35    36 1   
    90    35   101 1   
    91    35   102 1   
    92    36    37 1   
    93    36   103 1   
    94    36   104 1   
    95    37    38 1   
    96    37   105 1   
    97    37   106 1   
    98    38    39 1   
    99    38   107 1   
   100    38   108 1   
   101    39    40 1   
   102    39   109 1   
   103    39   110 1   
   104    40    41 1   
   105    40   111 1   
   106    40   112 1   
   107    41    42 1   
   108    41   113 1   
   109    41   114 1   
   110    42    43 1   
   111    42   115 1   
   112    42   116 1   
   113    43    44 2   
   114    45   117 1   
   115    46   117 1   
   116    47   117 1   
   117    48   117 1   
@<TRIPOS>SUBSTRUCTURE
     1 EIS         1 TEMP              0 ****  ****    0 ROOT
