@<TRIPOS>MOLECULE
EIS
  117   117     1     0     0
SMALL
abcg2


@<TRIPOS>ATOM
      1 C43          4.7200    -2.1690    -0.7540 c6         1 EIS       0.355300
      2 O            3.4100    -2.2050    -0.3270 os         1 EIS      -0.463000
      3 C44          5.6030    -1.8160     0.4460 c6         1 EIS       0.145300
      4 O3           5.3310    -0.5180     0.9020 oh         1 EIS      -0.684000
      5 C45          7.0580    -1.8760     0.0040 c6         1 EIS       0.245300
      6 C46          7.3750    -3.2250    -0.6370 c6         1 EIS       0.111300
      7 O5           7.2970    -4.2170     0.3590 oh         1 EIS      -0.687000
      8 C47          6.3760    -3.4740    -1.7690 c6         1 EIS       0.145300
      9 C48          6.5920    -4.8180    -2.4300 c3         1 EIS       0.163600
     10 O7           5.7640    -4.9080    -3.5640 oh         1 EIS      -0.714000
     11 O6           5.0540    -3.4250    -1.2750 os         1 EIS      -0.470000
     12 O1           0.6460    -4.1600    -0.1970 oh         1 EIS      -0.637000
     13 C2           0.6240    -2.8590     0.3310 c3         1 EIS       0.191500
     14 C1           1.0960    -1.8310    -0.7250 c3         1 EIS       0.079700
     15 N            1.1670    -0.5080    -0.1500 ns         1 EIS      -0.501900
     16 C            2.4310    -2.2010    -1.3500 c3         1 EIS       0.158600
     17 C3          -0.7060    -2.4730     0.9150 c2         1 EIS      -0.246200
     18 C4          -1.7840    -3.2490     0.9610 c2         1 EIS      -0.214200
     19 C5          -3.0880    -2.8510     1.5760 c3         1 EIS      -0.040200
     20 C6          -4.2430    -2.8380     0.5730 c3         1 EIS      -0.073400
     21 C7          -5.5880    -2.5800     1.2400 c3         1 EIS      -0.075400
     22 C8          -6.7590    -2.5600     0.2670 c3         1 EIS      -0.074400
     23 C9          -8.1010    -2.3560     0.9610 c3         1 EIS      -0.074400
     24 C10         -9.2860    -2.3360     0.0040 c3         1 EIS      -0.074400
     25 C11        -10.6220    -2.1570     0.7150 c3         1 EIS      -0.074400
     26 C12        -11.8160    -2.1380    -0.2320 c3         1 EIS      -0.074400
     27 C13        -13.1470    -1.9710     0.4900 c3         1 EIS      -0.074400
     28 C14        -14.3480    -1.9560    -0.4480 c3         1 EIS      -0.074400
     29 C15        -15.6750    -1.7900     0.2810 c3         1 EIS      -0.075400
     30 C16        -16.8810    -1.7820    -0.6510 c3         1 EIS      -0.075400
     31 C17        -18.1980    -1.6040     0.0930 c3         1 EIS      -0.088100
     32 C29          0.8210    14.5000     0.2450 c3         1 EIS      -0.088100
     33 C28          0.6540    13.2340    -0.5850 c3         1 EIS      -0.074400
     34 C27          0.7690    11.9630     0.2460 c3         1 EIS      -0.075400
     35 C26          0.6050    10.6880    -0.5720 c3         1 EIS      -0.074400
     36 C25          0.7300     9.4180     0.2590 c3         1 EIS      -0.074400
     37 C24          0.5620     8.1440    -0.5600 c3         1 EIS      -0.074400
     38 C23          0.6940     6.8730     0.2690 c3         1 EIS      -0.074400
     39 C22          0.5210     5.6010    -0.5520 c3         1 EIS      -0.073400
     40 C21          0.6550     4.3280     0.2730 c3         1 EIS      -0.076400
     41 C20          0.4750     3.0640    -0.5570 c3         1 EIS      -0.065400
     42 C19          0.6150     1.8000     0.2790 c3         1 EIS      -0.157400
     43 C18          0.3930     0.5320    -0.5180 c          1 EIS       0.603100
     44 O2          -0.4420     0.4620    -1.4080 o          1 EIS      -0.618100
     45 O4           7.8710    -1.6450     1.1400 os         1 EIS      -0.568700
     46 O10          8.7710     0.5790     0.5010 o          1 EIS      -0.707533
     47 O9           9.7450    -0.7590     2.3240 o          1 EIS      -0.707533
     48 O8          10.0550    -1.4400    -0.0230 o          1 EIS      -0.707533
     49 H1           4.8530    -1.3960    -1.5380 h2         1 EIS       0.024700
     50 H2           5.4300    -2.5660     1.2310 h1         1 EIS       0.076700
     51 H3           4.4950    -0.5350     1.3770 ho         1 EIS       0.488000
     52 H4           7.2130    -1.0960    -0.7530 h1         1 EIS       0.056700
     53 H5           8.3800    -3.1750    -1.0720 h1         1 EIS       0.077700
     54 H6           7.8940    -4.9350     0.1310 ho         1 EIS       0.489000
     55 H7           6.5280    -2.6880    -2.5280 h1         1 EIS       0.049700
     56 H8           7.6550    -4.8940    -2.6950 h1         1 EIS       0.028200
     57 H9           6.3800    -5.6170    -1.7100 h1         1 EIS       0.028200
     58 H10          5.8350    -5.8010    -3.9130 ho         1 EIS       0.493000
     59 H11          0.0160    -4.2090    -0.9250 ho         1 EIS       0.434000
     60 H12          1.3560    -2.8600     1.1470 h1         1 EIS       0.097700
     61 H13          0.3570    -1.8010    -1.5300 h1         1 EIS       0.080700
     62 H14          1.8480    -0.3610     0.5770 hn         1 EIS       0.324500
     63 H15          2.6810    -1.4550    -2.1150 h1         1 EIS       0.047700
     64 H16          2.3670    -3.1740    -1.8430 h1         1 EIS       0.047700
     65 H17         -0.7540    -1.4830     1.3580 ha         1 EIS       0.175000
     66 H20         -1.7510    -4.2520     0.5420 ha         1 EIS       0.170000
     67 H21         -3.3340    -3.5610     2.3740 hc         1 EIS       0.041700
     68 H22         -2.9990    -1.8690     2.0500 hc         1 EIS       0.041700
     69 H23         -4.0530    -2.0750    -0.1890 hc         1 EIS       0.042200
     70 H24         -4.2770    -3.7970     0.0450 hc         1 EIS       0.042200
     71 H25         -5.7620    -3.3530     1.9980 hc         1 EIS       0.035700
     72 H26         -5.5510    -1.6290     1.7820 hc         1 EIS       0.035700
     73 H27         -6.6070    -1.7670    -0.4730 hc         1 EIS       0.038700
     74 H28         -6.7810    -3.5000    -0.2960 hc         1 EIS       0.038700
     75 H29         -8.2470    -3.1520     1.7000 hc         1 EIS       0.036200
     76 H30         -8.0780    -1.4180     1.5280 hc         1 EIS       0.036200
     77 H31         -9.1510    -1.5300    -0.7260 hc         1 EIS       0.037700
     78 H32         -9.3030    -3.2680    -0.5730 hc         1 EIS       0.037700
     79 H33        -10.7530    -2.9630     1.4450 hc         1 EIS       0.036200
     80 H34        -10.6040    -1.2260     1.2930 hc         1 EIS       0.036200
     81 H35        -11.6910    -1.3270    -0.9580 hc         1 EIS       0.037200
     82 H36        -11.8320    -3.0670    -0.8140 hc         1 EIS       0.037200
     83 H37        -13.2680    -2.7800     1.2180 hc         1 EIS       0.036700
     84 H38        -13.1310    -1.0420     1.0720 hc         1 EIS       0.036700
     85 H39        -14.2290    -1.1450    -1.1760 hc         1 EIS       0.036700
     86 H40        -14.3650    -2.8840    -1.0300 hc         1 EIS       0.036700
     87 H41        -15.7910    -2.5960     1.0130 hc         1 EIS       0.036700
     88 H42        -15.6590    -0.8580     0.8580 hc         1 EIS       0.036700
     89 H43        -16.7650    -0.9800    -1.3860 hc         1 EIS       0.036700
     90 H44        -16.9030    -2.7160    -1.2210 hc         1 EIS       0.036700
     91 H45        -18.2170    -0.6580     0.6380 hc         1 EIS       0.030033
     92 H46        -19.0500    -1.6090    -0.5870 hc         1 EIS       0.030033
     93 H47        -18.3510    -2.4040     0.8210 hc         1 EIS       0.030033
     94 H48          0.0570    14.5660     1.0220 hc         1 EIS       0.030033
     95 H49          1.7940    14.5200     0.7400 hc         1 EIS       0.030033
     96 H50          0.7450    15.3980    -0.3690 hc         1 EIS       0.030033
     97 H51         -0.3170    13.2500    -1.0900 hc         1 EIS       0.035700
     98 H52          1.4070    13.2160    -1.3790 hc         1 EIS       0.035700
     99 H53          1.7420    11.9480     0.7500 hc         1 EIS       0.037200
    100 H54          0.0170    11.9820     1.0440 hc         1 EIS       0.037200
    101 H55         -0.3710    10.7000    -1.0710 hc         1 EIS       0.036200
    102 H56          1.3520    10.6730    -1.3730 hc         1 EIS       0.036200
    103 H57          1.7070     9.4040     0.7550 hc         1 EIS       0.037200
    104 H58         -0.0150     9.4340     1.0620 hc         1 EIS       0.037200
    105 H59         -0.4170     8.1560    -1.0520 hc         1 EIS       0.036700
    106 H60          1.3040     8.1300    -1.3650 hc         1 EIS       0.036700
    107 H61          1.6740     6.8590     0.7590 hc         1 EIS       0.037700
    108 H62         -0.0470     6.8870     1.0760 hc         1 EIS       0.037700
    109 H63         -0.4600     5.6140    -1.0400 hc         1 EIS       0.038700
    110 H64          1.2600     5.5880    -1.3610 hc         1 EIS       0.038700
    111 H65          1.6370     4.3120     0.7590 hc         1 EIS       0.038200
    112 H66         -0.0830     4.3400     1.0830 hc         1 EIS       0.038200
    113 H67         -0.5060     3.0790    -1.0360 hc         1 EIS       0.053200
    114 H68          1.2140     3.0520    -1.3650 hc         1 EIS       0.053200
    115 H69          1.5900     1.7810     0.7730 hc         1 EIS       0.057200
    116 H70         -0.1290     1.8080     1.0840 hc         1 EIS       0.057200
    117 S            9.2270    -0.7350     0.9590 s6         1 EIS       1.496300
@<TRIPOS>BOND
     1     1     2 1   
     2     1     3 1   
     3     1    11 1   
     4     1    49 1   
     5     2    16 1   
     6     3     4 1   
     7     3     5 1   
     8     3    50 1   
     9     4    51 1   
    10     5     6 1   
    11     5    45 1   
    12     5    52 1   
    13     6     7 1   
    14     6     8 1   
    15     6    53 1   
    16     7    54 1   
    17     8     9 1   
    18     8    11 1   
    19     8    55 1   
    20     9    10 1   
    21     9    56 1   
    22     9    57 1   
    23    10    58 1   
    24    12    13 1   
    25    12    59 1   
    26    13    14 1   
    27    13    17 1   
    28    13    60 1   
    29    14    15 1   
    30    14    16 1   
    31    14    61 1   
    32    15    43 1   
    33    15    62 1   
    34    16    63 1   
    35    16    64 1   
    36    17    18 2   
    37    17    65 1   
    38    18    19 1   
    39    18    66 1   
    40    19    20 1   
    41    19    67 1   
    42    19    68 1   
    43    20    21 1   
    44    20    69 1   
    45    20    70 1   
    46    21    22 1   
    47    21    71 1   
    48    21    72 1   
    49    22    23 1   
    50    22    73 1   
    51    22    74 1   
    52    23    24 1   
    53    23    75 1   
    54    23    76 1   
    55    24    25 1   
    56    24    77 1   
    57    24    78 1   
    58    25    26 1   
    59    25    79 1   
    60    25    80 1   
    61    26    27 1   
    62    26    81 1   
    63    26    82 1   
    64    27    28 1   
    65    27    83 1   
    66    27    84 1   
    67    28    29 1   
    68    28    85 1   
    69    28    86 1   
    70    29    30 1   
    71    29    87 1   
    72    29    88 1   
    73    30    31 1   
    74    30    89 1   
    75    30    90 1   
    76    31    91 1   
    77    31    92 1   
    78    31    93 1   
    79    32    33 1   
    80    32    94 1   
    81    32    95 1   
    82    32    96 1   
    83    33    34 1   
    84    33    97 1   
    85    33    98 1   
    86    34    35 1   
    87    34    99 1   
    88    34   100 1   
    89    35    36 1   
    90    35   101 1   
    91    35   102 1   
    92    36    37 1   
    93    36   103 1   
    94    36   104 1   
    95    37    38 1   
    96    37   105 1   
    97    37   106 1   
    98    38    39 1   
    99    38   107 1   
   100    38   108 1   
   101    39    40 1   
   102    39   109 1   
   103    39   110 1   
   104    40    41 1   
   105    40   111 1   
   106    40   112 1   
   107    41    42 1   
   108    41   113 1   
   109    41   114 1   
   110    42    43 1   
   111    42   115 1   
   112    42   116 1   
   113    43    44 2   
   114    45   117 1   
   115    46   117 1   
   116    47   117 1   
   117    48   117 1   
@<TRIPOS>SUBSTRUCTURE
     1 EIS         1 TEMP              0 ****  ****    0 ROOT
