@<TRIPOS>MOLECULE
EIU
   76    79     1     0     0
SMALL
No Charge or Current Charge


@<TRIPOS>ATOM
      1 C1           4.2510    27.0150     6.9620 c5         1 EIU      -0.056700
      2 C10          4.2920    24.2270    12.2480 c3         1 EIU      -0.089100
      3 C11          6.7940    26.7390    10.8400 c3         1 EIU      -0.086100
      4 C12          6.3780    28.5550     7.3400 c3         1 EIU       0.201500
      5 C13          6.9110    28.3960     5.9360 c2         1 EIU      -0.149200
      6 C14          6.4370    29.0380     4.8460 ce         1 EIU      -0.216000
      7 C15          4.5330    26.1400     5.7070 c3         1 EIU      -0.034200
      8 C16          3.2950    25.7740     4.9110 c2         1 EIU      -0.214200
      9 C17          6.9100    28.7840     3.4820 ce         1 EIU      -0.072000
     10 C18          6.2820    29.2640     2.3730 cf         1 EIU      -0.251000
     11 C19          2.9710    26.2730     3.7060 c2         1 EIU      -0.193200
     12 C2           5.5100    27.3620     7.8550 c5         1 EIU      -0.086700
     13 C20          1.7800    25.8270     2.8690 c3         1 EIU      -0.118200
     14 C21          6.6350    28.9920     0.9850 cf         1 EIU       0.354100
     15 C24          2.8010    28.3140    -1.6650 c3         1 EIU      -0.080400
     16 C25          2.0690    25.9250    -0.9910 c3         1 EIU       0.109000
     17 C26          3.2360    26.8470    -1.4000 c3         1 EIU      -0.105400
     18 C27          6.2190    28.7880    -1.4520 c          1 EIU       0.590200
     19 C28          5.8220    29.1160    -0.0950 ce         1 EIU      -0.495400
     20 C3           3.3170    26.3130     7.9830 c5         1 EIU      -0.071400
     21 C30          3.9360    29.3690    -1.5870 c5         1 EIU       0.005700
     22 C31          4.4120    29.5520    -0.1120 c          1 EIU       0.612300
     23 C34          2.1900    25.3590     1.4620 c          1 EIU       0.594100
     24 C4           3.3650    27.3400     9.1440 c5         1 EIU      -0.068700
     25 C5           4.8830    27.6350     9.2830 c5         1 EIU      -0.068700
     26 C6           2.9490    26.6200    10.4740 c5         1 EIU      -0.068400
     27 C7           4.2300    26.7090    11.3650 c5         1 EIU      -0.061700
     28 C8           5.3580    26.5440    10.3010 c5         1 EIU      -0.061700
     29 C9           4.2640    25.7360    12.5780 c3         1 EIU      -0.064400
     30 N23          1.7100    26.1220     0.4180 ns         1 EIU      -0.512900
     31 N29          5.1690    28.9690    -2.2920 ns         1 EIU      -0.488900
     32 O22          7.8770    28.5430     0.8040 oh         1 EIU      -0.538100
     33 O32          7.3270    28.4060    -1.7850 o          1 EIU      -0.615000
     34 O33          3.7550    29.9470     0.8410 o          1 EIU      -0.555100
     35 O35          2.8830    24.3680     1.2790 o          1 EIU      -0.604100
     36 O36          7.4900    28.7560     8.2120 oh         1 EIU      -0.663000
     37 H1           3.7800    27.9360     6.5960 hc         1 EIU       0.048700
     38 H2           4.3190    23.6400    13.1750 hc         1 EIU       0.032367
     39 H3           3.4020    23.9230    11.6870 hc         1 EIU       0.032367
     40 H4           5.1810    23.9670    11.6620 hc         1 EIU       0.032367
     41 H5           7.0350    25.9890    11.6020 hc         1 EIU       0.035700
     42 H6           7.5360    26.6350    10.0400 hc         1 EIU       0.035700
     43 H7           6.9190    27.7290    11.2950 hc         1 EIU       0.035700
     44 H8           5.7400    29.4500     7.3610 h1         1 EIU       0.040700
     45 H9           7.7130    27.6630     5.8500 ha         1 EIU       0.188000
     46 H10          5.6140    29.7460     4.9530 ha         1 EIU       0.182000
     47 H11          5.0440    25.2190     6.0140 hc         1 EIU       0.049700
     48 H12          5.2350    26.6470     5.0400 hc         1 EIU       0.049700
     49 H13          2.6760    25.0040     5.3740 ha         1 EIU       0.165000
     50 H14          7.7780    28.1290     3.3670 ha         1 EIU       0.192000
     51 H15          5.4090    29.8890     2.5410 ha         1 EIU       0.219000
     52 H16          3.6020    27.0290     3.2320 ha         1 EIU       0.179000
     53 H17          6.1790    26.4940     7.8820 hc         1 EIU       0.068700
     54 H18          1.0630    26.6530     2.7860 hc         1 EIU       0.063700
     55 H19          1.2750    24.9890     3.3630 hc         1 EIU       0.063700
     56 H20          2.3340    28.3570    -2.6570 hc         1 EIU       0.052200
     57 H21          2.0120    28.5940    -0.9560 hc         1 EIU       0.052200
     58 H22          1.1920    26.1230    -1.6220 h1         1 EIU       0.055700
     59 H23          2.3610    24.8780    -1.1470 h1         1 EIU       0.055700
     60 H24          3.6980    26.4490    -2.3120 hc         1 EIU       0.060700
     61 H25          4.0050    26.8050    -0.6190 hc         1 EIU       0.060700
     62 H26          2.2990    26.1800     7.6000 hc         1 EIU       0.046700
     63 H27          3.6950    25.3200     8.2560 hc         1 EIU       0.046700
     64 H28          3.5630    30.3410    -1.9360 h1         1 EIU       0.079700
     65 H29          2.7780    28.2430     8.9350 hc         1 EIU       0.053700
     66 H30          5.0560    28.6540     9.6520 hc         1 EIU       0.043700
     67 H31          2.1000    27.1210    10.9530 hc         1 EIU       0.045200
     68 H32          2.6350    25.5850    10.3040 hc         1 EIU       0.045200
     69 H33          4.2890    27.7120    11.8080 hc         1 EIU       0.042700
     70 H34          5.3310    25.5390     9.8630 hc         1 EIU       0.054700
     71 H35          5.1390    25.9640    13.1980 hc         1 EIU       0.038200
     72 H36          3.3920    25.9300    13.2140 hc         1 EIU       0.038200
     73 H37          1.1290    26.9150     0.6630 hn         1 EIU       0.312500
     74 H38          5.2770    28.7700    -3.2810 hn         1 EIU       0.336500
     75 H39          7.9340    28.4070    -0.1770 ho         1 EIU       0.542000
     76 H40          7.1320    28.7270     9.1240 ho         1 EIU       0.448000
@<TRIPOS>BOND
     1     1     7 1   
     2     1    12 1   
     3     1    20 1   
     4     1    37 1   
     5     2    29 1   
     6     2    38 1   
     7     2    39 1   
     8     2    40 1   
     9     3    28 1   
    10     3    41 1   
    11     3    42 1   
    12     3    43 1   
    13     4     5 1   
    14     4    12 1   
    15     4    36 1   
    16     4    44 1   
    17     5     6 2   
    18     5    45 1   
    19     6     9 1   
    20     6    46 1   
    21     7     8 1   
    22     7    47 1   
    23     7    48 1   
    24     8    11 2   
    25     8    49 1   
    26     9    10 2   
    27     9    50 1   
    28    10    14 1   
    29    10    51 1   
    30    11    13 1   
    31    11    52 1   
    32    12    25 1   
    33    12    53 1   
    34    13    23 1   
    35    13    54 1   
    36    13    55 1   
    37    14    19 2   
    38    14    32 1   
    39    15    17 1   
    40    15    21 1   
    41    15    56 1   
    42    15    57 1   
    43    16    17 1   
    44    16    30 1   
    45    16    58 1   
    46    16    59 1   
    47    17    60 1   
    48    17    61 1   
    49    18    19 1   
    50    18    31 1   
    51    18    33 2   
    52    19    22 1   
    53    20    24 1   
    54    20    62 1   
    55    20    63 1   
    56    21    22 1   
    57    21    31 1   
    58    21    64 1   
    59    22    34 2   
    60    23    30 1   
    61    23    35 2   
    62    24    25 1   
    63    24    26 1   
    64    24    65 1   
    65    25    28 1   
    66    25    66 1   
    67    26    27 1   
    68    26    67 1   
    69    26    68 1   
    70    27    28 1   
    71    27    29 1   
    72    27    69 1   
    73    28    70 1   
    74    29    71 1   
    75    29    72 1   
    76    30    73 1   
    77    31    74 1   
    78    32    75 1   
    79    36    76 1   
@<TRIPOS>SUBSTRUCTURE
     1 EIU         1 TEMP              0 ****  ****    0 ROOT
