@<TRIPOS>MOLECULE
EIU
   76    79     1     0     0
SMALL
abcg2


@<TRIPOS>ATOM
      1 C1           4.3840    27.1160     6.9980 c5         1 EIU      -0.056700
      2 C10          3.9650    24.0560    11.6380 c3         1 EIU      -0.089100
      3 C11          6.8310    26.5360    10.8460 c3         1 EIU      -0.086100
      4 C12          6.3540    28.7270     7.4090 c3         1 EIU       0.201500
      5 C13          6.8580    28.6100     6.0100 c2         1 EIU      -0.149200
      6 C14          6.2250    29.0830     4.9280 ce         1 EIU      -0.216000
      7 C15          4.6650    26.0650     5.9150 c3         1 EIU      -0.034200
      8 C16          3.5030    25.8600     4.9880 c2         1 EIU      -0.214200
      9 C17          6.6880    28.8440     3.5890 ce         1 EIU      -0.072000
     10 C18          5.9490    29.1180     2.4920 cf         1 EIU      -0.251000
     11 C19          3.4390    26.3570     3.7570 c2         1 EIU      -0.193200
     12 C2           5.6160    27.4560     7.8830 c5         1 EIU      -0.086700
     13 C20          2.2650    26.2250     2.8370 c3         1 EIU      -0.118200
     14 C21          6.3900    28.8550     1.1520 cf         1 EIU       0.354100
     15 C24          2.6740    28.0950    -1.7520 c3         1 EIU      -0.080400
     16 C25          2.1050    25.7370    -0.9400 c3         1 EIU       0.109000
     17 C26          3.1650    26.6540    -1.5510 c3         1 EIU      -0.105400
     18 C27          6.0480    28.7010    -1.3020 c          1 EIU       0.590200
     19 C28          5.5570    28.9550     0.0500 ce         1 EIU      -0.495400
     20 C3           3.2840    26.7060     7.9840 c5         1 EIU      -0.071400
     21 C30          3.7550    29.1540    -1.5170 c5         1 EIU       0.005700
     22 C31          4.1470    29.2430    -0.0300 c          1 EIU       0.612300
     23 C34          2.6590    25.7180     1.4550 c          1 EIU       0.594100
     24 C4           3.5270    27.5650     9.2270 c5         1 EIU      -0.068700
     25 C5           5.0690    27.6150     9.3200 c5         1 EIU      -0.068700
     26 C6           3.0360    26.9610    10.5590 c5         1 EIU      -0.068400
     27 C7           4.3100    26.6040    11.3620 c5         1 EIU      -0.061700
     28 C8           5.4130    26.4820    10.2980 c5         1 EIU      -0.061700
     29 C9           4.1570    25.4130    12.3140 c3         1 EIU      -0.064400
     30 N23          1.8320    26.0710     0.4520 ns         1 EIU      -0.512900
     31 N29          5.0280    28.8630    -2.1650 ns         1 EIU      -0.488900
     32 O22          7.6560    28.4970     0.9730 oh         1 EIU      -0.538100
     33 O32          7.2200    28.3870    -1.5960 o          1 EIU      -0.615000
     34 O33          3.3380    29.4930     0.8540 o          1 EIU      -0.555100
     35 O35          3.6550    25.0150     1.2740 o          1 EIU      -0.604100
     36 O36          7.5070    28.9990     8.2210 oh         1 EIU      -0.663000
     37 H1           4.0640    28.0350     6.4970 hc         1 EIU       0.048700
     38 H2           3.7640    23.2810    12.3810 hc         1 EIU       0.032367
     39 H3           3.1280    24.0670    10.9370 hc         1 EIU       0.032367
     40 H4           4.8560    23.7560    11.0830 hc         1 EIU       0.032367
     41 H5           7.0320    25.7010    11.5210 hc         1 EIU       0.035700
     42 H6           7.5690    26.4960    10.0410 hc         1 EIU       0.035700
     43 H7           6.9910    27.4640    11.4020 hc         1 EIU       0.035700
     44 H8           5.6500    29.5660     7.4720 h1         1 EIU       0.040700
     45 H9           7.7820    28.0490     5.8890 ha         1 EIU       0.188000
     46 H10          5.2920    29.6260     5.0430 ha         1 EIU       0.182000
     47 H11          4.9180    25.1230     6.4140 hc         1 EIU       0.049700
     48 H12          5.5370    26.3630     5.3320 hc         1 EIU       0.049700
     49 H13          2.6540    25.3010     5.3760 ha         1 EIU       0.165000
     50 H14          7.6650    28.3860     3.4750 ha         1 EIU       0.192000
     51 H15          4.9500    29.5220     2.5860 ha         1 EIU       0.219000
     52 H16          4.2840    26.9200     3.3700 ha         1 EIU       0.179000
     53 H17          6.3360    26.6330     7.8480 hc         1 EIU       0.068700
     54 H18          1.7550    27.1870     2.7240 hc         1 EIU       0.063700
     55 H19          1.5300    25.5280     3.2520 hc         1 EIU       0.063700
     56 H20          2.2650    28.2160    -2.7570 hc         1 EIU       0.052200
     57 H21          1.8660    28.3290    -1.0550 hc         1 EIU       0.052200
     58 H22          1.1650    25.8080    -1.4880 h1         1 EIU       0.055700
     59 H23          2.4420    24.7020    -0.9830 h1         1 EIU       0.055700
     60 H24          3.4890    26.2340    -2.5060 hc         1 EIU       0.060700
     61 H25          4.0360    26.6290    -0.8940 hc         1 EIU       0.060700
     62 H26          2.2810    26.8300     7.5710 hc         1 EIU       0.046700
     63 H27          3.3990    25.6480     8.2420 hc         1 EIU       0.046700
     64 H28          3.3810    30.1340    -1.8270 h1         1 EIU       0.079700
     65 H29          3.1170    28.5630     9.0580 hc         1 EIU       0.053700
     66 H30          5.3880    28.5590     9.7750 hc         1 EIU       0.043700
     67 H31          2.4050    27.6530    11.1200 hc         1 EIU       0.045200
     68 H32          2.4340    26.0700    10.3680 hc         1 EIU       0.045200
     69 H33          4.5670    27.4760    11.9760 hc         1 EIU       0.042700
     70 H34          5.2800    25.5350     9.7640 hc         1 EIU       0.054700
     71 H35          5.0350    25.3640    12.9650 hc         1 EIU       0.038200
     72 H36          3.3050    25.6120    12.9730 hc         1 EIU       0.038200
     73 H37          1.0730    26.6990     0.6570 hn         1 EIU       0.312500
     74 H38          5.1220    28.6840    -3.1540 hn         1 EIU       0.336500
     75 H39          7.7900    28.3600    -0.0110 ho         1 EIU       0.542000
     76 H40          7.2220    29.0640     9.1410 ho         1 EIU       0.448000
@<TRIPOS>BOND
     1     1     7 1   
     2     1    12 1   
     3     1    20 1   
     4     1    37 1   
     5     2    29 1   
     6     2    38 1   
     7     2    39 1   
     8     2    40 1   
     9     3    28 1   
    10     3    41 1   
    11     3    42 1   
    12     3    43 1   
    13     4     5 1   
    14     4    12 1   
    15     4    36 1   
    16     4    44 1   
    17     5     6 2   
    18     5    45 1   
    19     6     9 1   
    20     6    46 1   
    21     7     8 1   
    22     7    47 1   
    23     7    48 1   
    24     8    11 2   
    25     8    49 1   
    26     9    10 2   
    27     9    50 1   
    28    10    14 1   
    29    10    51 1   
    30    11    13 1   
    31    11    52 1   
    32    12    25 1   
    33    12    53 1   
    34    13    23 1   
    35    13    54 1   
    36    13    55 1   
    37    14    19 2   
    38    14    32 1   
    39    15    17 1   
    40    15    21 1   
    41    15    56 1   
    42    15    57 1   
    43    16    17 1   
    44    16    30 1   
    45    16    58 1   
    46    16    59 1   
    47    17    60 1   
    48    17    61 1   
    49    18    19 1   
    50    18    31 1   
    51    18    33 2   
    52    19    22 1   
    53    20    24 1   
    54    20    62 1   
    55    20    63 1   
    56    21    22 1   
    57    21    31 1   
    58    21    64 1   
    59    22    34 2   
    60    23    30 1   
    61    23    35 2   
    62    24    25 1   
    63    24    26 1   
    64    24    65 1   
    65    25    28 1   
    66    25    66 1   
    67    26    27 1   
    68    26    67 1   
    69    26    68 1   
    70    27    28 1   
    71    27    29 1   
    72    27    69 1   
    73    28    70 1   
    74    29    71 1   
    75    29    72 1   
    76    30    73 1   
    77    31    74 1   
    78    32    75 1   
    79    36    76 1   
@<TRIPOS>SUBSTRUCTURE
     1 EIU         1 TEMP              0 ****  ****    0 ROOT
