@<TRIPOS>MOLECULE
EIV
   14    14     1     0     0
SMALL
abcg2


@<TRIPOS>ATOM
      1 C06         20.9370     4.2340    36.5790 cc         1 EIV      -0.336200
      2 C07         18.9660     4.3870    34.9040 c3         1 EIV       0.049900
      3 C08         20.0890     2.4050    35.8220 cc         1 EIV       0.433400
      4 C09         21.6050     3.1510    37.0990 cd         1 EIV       0.354900
      5 N03         19.9550     3.7360    35.7560 na         1 EIV      -0.124500
      6 N04         21.0630     2.0180    36.6200 nd         1 EIV      -0.673000
      7 N05         21.1940     5.5920    36.8640 no         1 EIV       0.740200
      8 O01         20.4410     6.4450    36.4460 o          1 EIV      -0.400500
      9 O02         22.1750     5.8240    37.5380 o          1 EIV      -0.400500
     10 H1          19.0080     5.4600    35.0220 h1         1 EIV       0.073367
     11 H2          19.1630     4.1340    33.8660 h1         1 EIV       0.073367
     12 H3          17.9740     4.0390    35.1800 h1         1 EIV       0.073367
     13 H4          19.4450     1.7470    35.2580 h5         1 EIV       0.066100
     14 H5          22.4310     3.1540    37.7930 h4         1 EIV       0.070100
@<TRIPOS>BOND
     1     1     4 2   
     2     1     5 1   
     3     1     7 1   
     4     2     5 1   
     5     2    10 1   
     6     2    11 1   
     7     2    12 1   
     8     3     5 1   
     9     3     6 2   
    10     3    13 1   
    11     4     6 1   
    12     4    14 1   
    13     7     8 1   
    14     7     9 1   
@<TRIPOS>SUBSTRUCTURE
     1 EIV         1 TEMP              0 ****  ****    0 ROOT
