@<TRIPOS>MOLECULE
EIV
   14    14     1     0     0
SMALL
No Charge or Current Charge


@<TRIPOS>ATOM
      1 C06         20.8910     4.2330    36.6210 cc         1 EIV      -0.336200
      2 C07         18.9790     4.4040    34.9020 c3         1 EIV       0.049900
      3 C08         20.2350     2.3340    35.6400 cc         1 EIV       0.433400
      4 C09         21.6170     3.1620    37.0730 cd         1 EIV       0.354900
      5 N03         19.9990     3.6920    35.6950 na         1 EIV      -0.124500
      6 N04         21.2110     1.9900    36.4660 nd         1 EIV      -0.673000
      7 N05         21.0430     5.6070    37.0340 no         1 EIV       0.740200
      8 O01         20.3070     6.4640    36.5310 o          1 EIV      -0.400500
      9 O02         21.9110     5.8510    37.8790 o          1 EIV      -0.400500
     10 H1          19.4620     5.1580    34.2690 h1         1 EIV       0.073367
     11 H2          18.4360     3.6960    34.2630 h1         1 EIV       0.073367
     12 H3          18.2660     4.8970    35.5740 h1         1 EIV       0.073367
     13 H4          19.6740     1.6700    34.9930 h5         1 EIV       0.066100
     14 H5          22.4160     3.1670    37.8060 h4         1 EIV       0.070100
@<TRIPOS>BOND
     1     1     4 2   
     2     1     5 1   
     3     1     7 1   
     4     2     5 1   
     5     2    10 1   
     6     2    11 1   
     7     2    12 1   
     8     3     5 1   
     9     3     6 2   
    10     3    13 1   
    11     4     6 1   
    12     4    14 1   
    13     7     8 1   
    14     7     9 1   
@<TRIPOS>SUBSTRUCTURE
     1 EIV         1 TEMP              0 ****  ****    0 ROOT
