@<TRIPOS>MOLECULE
EIZ
   47    48     1     0     0
SMALL
bcc


@<TRIPOS>ATOM
      1 S1          49.9910    39.2960    10.3490 ss         1 EIZ      -0.047800
      2 C2          48.6670    39.2420    11.4530 cc         1 EIZ       0.121500
      3 C3          48.5440    38.0090    12.0210 cd         1 EIZ      -0.181600
      4 C4          49.5410    37.1030    11.5730 cd         1 EIZ      -0.120000
      5 C5          50.4140    37.6580    10.6800 cc         1 EIZ      -0.009100
      6 C6          51.5690    37.0300    10.0380 ca         1 EIZ      -0.013000
      7 N7          47.8380    40.3420    11.6320 ns         1 EIZ      -0.474100
      8 C8          52.6870    37.7780     9.6600 ca         1 EIZ      -0.115000
      9 C9          53.7740    37.1660     9.0560 ca         1 EIZ      -0.126500
     10 C10         53.7690    35.7970     8.8270 ca         1 EIZ      -0.123000
     11 C11         52.6630    35.0440     9.2010 ca         1 EIZ      -0.126500
     12 C12         51.5710    35.6540     9.7970 ca         1 EIZ      -0.115000
     13 C13         48.2270    41.4090    12.3930 c          1 EIZ       0.778100
     14 O14         47.2520    42.3030    12.4350 os         1 EIZ      -0.454900
     15 O15         49.3130    41.4860    12.9180 o          1 EIZ      -0.561000
     16 C16         47.3520    43.5520    13.1770 c3         1 EIZ       0.203800
     17 C17         47.5140    43.2820    14.6670 c3         1 EIZ      -0.110100
     18 C18         48.4740    44.4230    12.6270 c3         1 EIZ      -0.110100
     19 C19         46.0070    44.2160    12.9130 c3         1 EIZ      -0.110100
     20 C20         47.5320    37.7130    13.0800 c          1 EIZ       0.698700
     21 N21         46.6560    36.7260    12.8160 ns         1 EIZ      -0.569900
     22 O22         47.5440    38.3260    14.1350 o          1 EIZ      -0.574100
     23 C23         46.3600    36.1560    11.5180 c3         1 EIZ       0.099000
     24 C24         45.3440    36.9940    10.7560 c3         1 EIZ       0.112400
     25 O25         45.0590    36.3290     9.5500 oh         1 EIZ      -0.594800
     26 H27         46.9080    40.3220    11.2390 hn         1 EIZ       0.336500
     27 H28         52.7200    38.8440     9.8520 ha         1 EIZ       0.134500
     28 H29         54.6320    37.7620     8.7720 ha         1 EIZ       0.132500
     29 H30         54.6200    35.3200     8.3570 ha         1 EIZ       0.132000
     30 H31         52.6460    33.9770     9.0200 ha         1 EIZ       0.132500
     31 H32         50.7050    35.0590    10.0590 ha         1 EIZ       0.134500
     32 H33         47.4300    44.2240    15.2110 hc         1 EIZ       0.051144
     33 H34         46.7280    42.6200    15.0320 hc         1 EIZ       0.051144
     34 H35         48.4810    42.8460    14.9100 hc         1 EIZ       0.051144
     35 H36         48.4120    45.4100    13.0870 hc         1 EIZ       0.051144
     36 H37         49.4610    44.0190    12.8410 hc         1 EIZ       0.051144
     37 H38         48.3740    44.5550    11.5490 hc         1 EIZ       0.051144
     38 H40         45.9670    45.1760    13.4270 hc         1 EIZ       0.051144
     39 H41         45.8560    44.3990    11.8480 hc         1 EIZ       0.051144
     40 H39         45.1820    43.6040    13.2800 hc         1 EIZ       0.051144
     41 H42         45.9780    36.5500    13.5440 hn         1 EIZ       0.311500
     42 H44         45.9690    35.1500    11.6770 h1         1 EIZ       0.068700
     43 H43         47.2750    36.0530    10.9350 h1         1 EIZ       0.068700
     44 H46         45.7640    37.9950    10.5860 h1         1 EIZ       0.020700
     45 H45         44.4490    37.1240    11.3770 h1         1 EIZ       0.020700
     46 H47         44.4130    36.8480     9.0630 ho         1 EIZ       0.410000
     47 H26         49.6320    36.0890    11.9370 ha         1 EIZ       0.160000
@<TRIPOS>BOND
     1     1     2 1   
     2     1     5 1   
     3     2     3 2   
     4     2     7 1   
     5     3     4 1   
     6     3    20 1   
     7     4     5 2   
     8     4    47 1   
     9     5     6 1   
    10     6     8 ar  
    11     6    12 ar  
    12     7    13 1   
    13     7    26 1   
    14     8     9 ar  
    15     8    27 1   
    16     9    10 ar  
    17     9    28 1   
    18    10    11 ar  
    19    10    29 1   
    20    11    12 ar  
    21    11    30 1   
    22    12    31 1   
    23    13    14 1   
    24    13    15 2   
    25    14    16 1   
    26    16    17 1   
    27    16    18 1   
    28    16    19 1   
    29    17    32 1   
    30    17    33 1   
    31    17    34 1   
    32    18    35 1   
    33    18    36 1   
    34    18    37 1   
    35    19    38 1   
    36    19    39 1   
    37    19    40 1   
    38    20    21 1   
    39    20    22 2   
    40    21    23 1   
    41    21    41 1   
    42    23    24 1   
    43    23    42 1   
    44    23    43 1   
    45    24    25 1   
    46    24    44 1   
    47    24    45 1   
    48    25    46 1   
@<TRIPOS>SUBSTRUCTURE
     1 EIZ         1 TEMP              0 ****  ****    0 ROOT
