@<TRIPOS>MOLECULE
EIZ
   47    48     1     0     0
SMALL
No Charge or Current Charge


@<TRIPOS>ATOM
      1 S1          50.2670    39.5000    11.0810 ss         1 EIZ       0.242000
      2 C2          48.7440    39.3800    11.9790 cc         1 EIZ      -0.023400
      3 C3          48.2730    38.0730    12.0460 cd         1 EIZ      -0.181600
      4 C4          49.1880    37.1620    11.4150 cd         1 EIZ      -0.102000
      5 C5          50.2750    37.7670    10.8400 cc         1 EIZ      -0.154000
      6 C6          51.3330    36.9950    10.1840 ca         1 EIZ      -0.013000
      7 N7          48.0610    40.4540    12.5460 ns         1 EIZ      -0.407100
      8 C8          52.6680    37.4470    10.2290 ca         1 EIZ      -0.097000
      9 C9          53.6920    36.7180     9.5980 ca         1 EIZ      -0.108500
     10 C10         53.3900    35.5310     8.9110 ca         1 EIZ      -0.105000
     11 C11         52.0630    35.0760     8.8530 ca         1 EIZ      -0.108500
     12 C12         51.0390    35.8040     9.4840 ca         1 EIZ      -0.097000
     13 C13         48.3750    41.7880    12.5350 c          1 EIZ       0.662100
     14 O14         47.4010    42.4460    13.2380 os         1 EIZ      -0.478100
     15 O15         49.3490    42.2840    11.9930 o          1 EIZ      -0.512000
     16 C16         47.4120    43.8800    13.4310 c3         1 EIZ       0.227000
     17 C17         48.6740    44.2880    14.2340 c3         1 EIZ      -0.110100
     18 C18         47.3090    44.5920    12.0570 c3         1 EIZ      -0.110100
     19 C19         46.1430    44.1610    14.2650 c3         1 EIZ      -0.110100
     20 C20         46.9910    37.7200    12.7640 c          1 EIZ       0.631700
     21 N21         46.4050    36.4850    12.5540 ns         1 EIZ      -0.502900
     22 O22         46.4300    38.4800    13.5390 o          1 EIZ      -0.574100
     23 C23         46.4140    35.6670    11.3250 c3         1 EIZ       0.099000
     24 C24         46.1990    36.4680    10.0150 c3         1 EIZ       0.135600
     25 O25         46.1270    35.5720     8.8970 oh         1 EIZ      -0.657000
     26 H27         47.2110    40.2490    13.0590 hn         1 EIZ       0.336500
     27 H28         52.9200    38.3600    10.7620 ha         1 EIZ       0.116500
     28 H29         54.7190    37.0730     9.6430 ha         1 EIZ       0.114500
     29 H30         54.1820    34.9680     8.4220 ha         1 EIZ       0.114000
     30 H31         51.8260    34.1600     8.3150 ha         1 EIZ       0.114500
     31 H32         50.0160    35.4450     9.4140 ha         1 EIZ       0.116500
     32 H33         48.5850    45.3240    14.5830 hc         1 EIZ       0.051144
     33 H34         48.8010    43.6450    15.1130 hc         1 EIZ       0.051144
     34 H35         49.5840    44.2280    13.6270 hc         1 EIZ       0.051144
     35 H36         47.0890    45.6570    12.1950 hc         1 EIZ       0.051144
     36 H37         48.2440    44.5270    11.4900 hc         1 EIZ       0.051144
     37 H38         46.5060    44.1560    11.4520 hc         1 EIZ       0.051144
     38 H40         46.0440    45.2320    14.4770 hc         1 EIZ       0.051144
     39 H41         45.2440    43.8360    13.7280 hc         1 EIZ       0.051144
     40 H39         46.1810    43.6280    15.2230 hc         1 EIZ       0.051144
     41 H42         45.6380    36.3040    13.1900 hn         1 EIZ       0.311500
     42 H44         45.5860    34.9510    11.4120 h1         1 EIZ       0.068700
     43 H43         47.3260    35.0640    11.2700 h1         1 EIZ       0.068700
     44 H46         47.0170    37.1820     9.8670 h1         1 EIZ       0.020700
     45 H45         45.2670    37.0420    10.0980 h1         1 EIZ       0.020700
     46 H47         45.9790    36.1230     8.0960 ho         1 EIZ       0.449000
     47 H26         49.0760    36.0870    11.4280 ha         1 EIZ       0.142000
@<TRIPOS>BOND
     1     1     2 1   
     2     1     5 1   
     3     2     3 2   
     4     2     7 1   
     5     3     4 1   
     6     3    20 1   
     7     4     5 2   
     8     4    47 1   
     9     5     6 1   
    10     6     8 ar  
    11     6    12 ar  
    12     7    13 1   
    13     7    26 1   
    14     8     9 ar  
    15     8    27 1   
    16     9    10 ar  
    17     9    28 1   
    18    10    11 ar  
    19    10    29 1   
    20    11    12 ar  
    21    11    30 1   
    22    12    31 1   
    23    13    14 1   
    24    13    15 2   
    25    14    16 1   
    26    16    17 1   
    27    16    18 1   
    28    16    19 1   
    29    17    32 1   
    30    17    33 1   
    31    17    34 1   
    32    18    35 1   
    33    18    36 1   
    34    18    37 1   
    35    19    38 1   
    36    19    39 1   
    37    19    40 1   
    38    20    21 1   
    39    20    22 2   
    40    21    23 1   
    41    21    41 1   
    42    23    24 1   
    43    23    42 1   
    44    23    43 1   
    45    24    25 1   
    46    24    44 1   
    47    24    45 1   
    48    25    46 1   
@<TRIPOS>SUBSTRUCTURE
     1 EIZ         1 TEMP              0 ****  ****    0 ROOT
