@<TRIPOS>MOLECULE
EJ3
   51    54     1     0     0
SMALL
No Charge or Current Charge


@<TRIPOS>ATOM
      1 CBD         28.8380   -14.4110    -3.6080 c3         1 EJ3      -0.181100
      2 CBC         29.8480   -14.4250    -2.4570 c          1 EJ3       0.623100
      3 OBE         29.6140   -15.1100    -1.4670 o          1 EJ3      -0.544100
      4 NAG         31.0310   -13.6360    -2.5780 n          1 EJ3      -0.091600
      5 CAH         31.3660   -12.8280    -3.6770 cc         1 EJ3      -0.094400
      6 CAD         32.0950   -13.5130    -1.6180 ca         1 EJ3      -0.126000
      7 CAC         32.2600   -14.1050    -0.3530 ca         1 EJ3      -0.071000
      8 CAB         33.4240   -13.7950     0.3790 ca         1 EJ3      -0.134000
      9 CAA         34.3990   -12.9150    -0.1400 ca         1 EJ3       0.118100
     10 OBF         35.5110   -12.6600     0.6370 os         1 EJ3      -0.350100
     11 CBG         36.5650   -11.7790     0.2060 c3         1 EJ3       0.146900
     12 CAF         34.2140   -12.3280    -1.4160 ca         1 EJ3      -0.143000
     13 CAE         33.0500   -12.6480    -2.1310 ca         1 EJ3      -0.024800
     14 CAI         32.5860   -12.2100    -3.4470 cd         1 EJ3      -0.173400
     15 CAJ         33.2810   -11.2700    -4.3790 c          1 EJ3       0.636300
     16 OAK         34.3650   -10.7510    -4.1350 o          1 EJ3      -0.580100
     17 NAL         32.5890   -11.0680    -5.5690 ns         1 EJ3      -0.145000
     18 CAM         32.8560   -10.1910    -6.6570 ca         1 EJ3      -0.130000
     19 CAN         33.2420    -8.8430    -6.4690 ca         1 EJ3       0.158000
     20 FAS         33.2710    -8.3500    -5.2110 f          1 EJ3      -0.195000
     21 CAR         32.6790   -10.6910    -7.9580 ca         1 EJ3      -0.077000
     22 CAQ         32.9130    -9.8750    -9.0840 ca         1 EJ3      -0.140600
     23 CAT         32.7300   -10.4240   -10.4910 c          1 EJ3       0.718600
     24 OAV         32.3780   -11.5870   -10.6240 o          1 EJ3      -0.714000
     25 OAU         32.9410    -9.6820   -11.4400 o          1 EJ3      -0.714000
     26 CAP         33.3240    -8.5390    -8.8800 ca         1 EJ3      -0.057000
     27 CAO         33.4960    -7.9990    -7.5850 ca         1 EJ3      -0.059000
     28 CAW         33.9150    -6.5840    -7.4740 cc         1 EJ3      -0.122000
     29 CBA         34.3710    -5.9960    -6.3270 cd         1 EJ3      -0.161000
     30 CAX         34.0430    -5.6050    -8.4800 cc         1 EJ3       0.256900
     31 NAY         34.5060    -4.4480    -8.0520 nd         1 EJ3      -0.552800
     32 NAZ         34.7080    -4.6910    -6.7020 na         1 EJ3       0.116800
     33 CBB         35.2440    -3.6430    -5.8200 c3         1 EJ3       0.080900
     34 H1          27.9700   -15.0500    -3.4100 hc         1 EJ3       0.071367
     35 H2          28.5330   -13.3770    -3.8070 hc         1 EJ3       0.071367
     36 H3          29.3440   -14.7030    -4.5350 hc         1 EJ3       0.071367
     37 H4          30.6840   -12.7790    -4.5180 h4         1 EJ3       0.220000
     38 H5          31.5230   -14.7850     0.0660 ha         1 EJ3       0.138000
     39 H6          33.5750   -14.2400     1.3590 ha         1 EJ3       0.121000
     40 H7          37.3480   -11.7200     0.9720 h1         1 EJ3       0.041367
     41 H8          37.0240   -12.1450    -0.7220 h1         1 EJ3       0.041367
     42 H9          36.1800   -10.7660     0.0340 h1         1 EJ3       0.041367
     43 H10         34.9460   -11.6480    -1.8400 ha         1 EJ3       0.149000
     44 H11         31.7530   -11.6260    -5.6760 hn         1 EJ3       0.146000
     45 H12         32.3650   -11.7240    -8.0920 ha         1 EJ3       0.133000
     46 H14         33.5130    -7.9130    -9.7470 ha         1 EJ3       0.137000
     47 H15         34.5080    -6.3600    -5.3170 h4         1 EJ3       0.158000
     48 H16         33.8050    -5.7040    -9.5300 h4         1 EJ3       0.045100
     49 H17         36.2720    -3.4050    -6.1180 h1         1 EJ3       0.046033
     50 H18         34.6220    -2.7430    -5.8980 h1         1 EJ3       0.046033
     51 H19         35.2400    -3.9950    -4.7810 h1         1 EJ3       0.046033
@<TRIPOS>BOND
     1     1     2 1   
     2     1    34 1   
     3     1    35 1   
     4     1    36 1   
     5     2     3 2   
     6     2     4 1   
     7     4     5 1   
     8     4     6 1   
     9     5    14 2   
    10     5    37 1   
    11     6     7 ar  
    12     6    13 ar  
    13     7     8 ar  
    14     7    38 1   
    15     8     9 ar  
    16     8    39 1   
    17     9    10 1   
    18     9    12 ar  
    19    10    11 1   
    20    11    40 1   
    21    11    41 1   
    22    11    42 1   
    23    12    13 ar  
    24    12    43 1   
    25    13    14 1   
    26    14    15 1   
    27    15    16 2   
    28    15    17 1   
    29    17    18 1   
    30    17    44 1   
    31    18    19 ar  
    32    18    21 ar  
    33    19    20 1   
    34    19    27 ar  
    35    21    22 ar  
    36    21    45 1   
    37    22    23 1   
    38    22    26 ar  
    39    23    24 1   
    40    23    25 1   
    41    26    27 ar  
    42    26    46 1   
    43    27    28 1   
    44    28    29 2   
    45    28    30 1   
    46    29    32 1   
    47    29    47 1   
    48    30    31 2   
    49    30    48 1   
    50    31    32 1   
    51    32    33 1   
    52    33    49 1   
    53    33    50 1   
    54    33    51 1   
@<TRIPOS>SUBSTRUCTURE
     1 EJ3         1 TEMP              0 ****  ****    0 ROOT
