@<TRIPOS>MOLECULE
EJ3
   51    54     1     0     0
SMALL
bcc


@<TRIPOS>ATOM
      1 CBD         28.4460   -13.2520    -2.9620 c3         1 EJ3      -0.181100
      2 CBC         29.5470   -13.5820    -1.9960 c          1 EJ3       0.690100
      3 OBE         29.3760   -14.2250    -0.9900 o          1 EJ3      -0.544100
      4 NAG         30.8180   -13.1030    -2.3160 n          1 EJ3      -0.251200
      5 CAH         31.1260   -12.3540    -3.4290 cc         1 EJ3      -0.044400
      6 CAD         31.9900   -13.2810    -1.5700 ca         1 EJ3      -0.033400
      7 CAC         32.2330   -13.9640    -0.3810 ca         1 EJ3      -0.089000
      8 CAB         33.5220   -13.9620     0.1110 ca         1 EJ3      -0.152000
      9 CAA         34.5680   -13.3000    -0.5560 ca         1 EJ3       0.118100
     10 OBF         35.7760   -13.3830     0.0360 os         1 EJ3      -0.326900
     11 CBG         36.8720   -12.7460    -0.5850 c3         1 EJ3       0.123700
     12 CAF         34.3250   -12.6210    -1.7390 ca         1 EJ3      -0.161000
     13 CAE         33.0230   -12.6170    -2.2440 ca         1 EJ3      -0.024800
     14 CAI         32.4480   -12.0430    -3.4350 cd         1 EJ3      -0.173400
     15 CAJ         33.1500   -11.2150    -4.4260 c          1 EJ3       0.703300
     16 OAK         34.1770   -10.6160    -4.1560 o          1 EJ3      -0.580100
     17 NAL         32.5690   -11.1580    -5.6550 ns         1 EJ3      -0.471100
     18 CAM         33.0790   -10.3670    -6.6990 ca         1 EJ3      -0.037400
     19 CAN         33.1650    -8.9890    -6.5560 ca         1 EJ3       0.122900
     20 FAS         32.7360    -8.4430    -5.4110 f          1 EJ3      -0.159900
     21 CAR         33.4620   -10.9370    -7.9050 ca         1 EJ3      -0.095000
     22 CAQ         33.9290   -10.1470    -8.9490 ca         1 EJ3      -0.140600
     23 CAT         34.3500   -10.7780   -10.2760 c          1 EJ3       0.929200
     24 OAV         34.2200   -12.0140   -10.3640 o          1 EJ3      -0.819300
     25 OAU         34.7820    -9.9990   -11.1450 o          1 EJ3      -0.819300
     26 CAP         34.0290    -8.7760    -8.7550 ca         1 EJ3      -0.075000
     27 CAO         33.6520    -8.1610    -7.5590 ca         1 EJ3      -0.059000
     28 CAW         33.7350    -6.7110    -7.4070 cc         1 EJ3      -0.187300
     29 CBA         33.8580    -5.9400    -6.2640 cd         1 EJ3      -0.128300
     30 CAX         33.7420    -5.7560    -8.4450 cc         1 EJ3       0.322200
     31 NAY         33.8560    -4.5290    -7.9800 nd         1 EJ3      -0.552800
     32 NAZ         33.9300    -4.6600    -6.6600 na         1 EJ3       0.095400
     33 CBB         34.0720    -3.4920    -5.8240 c3         1 EJ3       0.051600
     34 H1          27.5190   -13.6870    -2.6000 hc         1 EJ3       0.071367
     35 H2          28.3110   -12.1750    -3.0590 hc         1 EJ3       0.071367
     36 H3          28.6540   -13.6520    -3.9550 hc         1 EJ3       0.071367
     37 H4          30.3610   -12.0730    -4.1350 h4         1 EJ3       0.170000
     38 H5          31.4570   -14.4830     0.1560 ha         1 EJ3       0.156000
     39 H6          33.7390   -14.4840     1.0340 ha         1 EJ3       0.139000
     40 H7          37.7380   -12.9350     0.0450 h1         1 EJ3       0.041367
     41 H8          37.0690   -13.1500    -1.5820 h1         1 EJ3       0.041367
     42 H9          36.7260   -11.6660    -0.6680 h1         1 EJ3       0.041367
     43 H10         35.1070   -12.0980    -2.2700 ha         1 EJ3       0.167000
     44 H11         31.8990   -11.8690    -5.9080 hn         1 EJ3       0.312500
     45 H12         33.3960   -12.0100    -8.0260 ha         1 EJ3       0.151000
     46 H14         34.4210    -8.1670    -9.5590 ha         1 EJ3       0.155000
     47 H15         33.9180    -6.2020    -5.2210 h4         1 EJ3       0.176000
     48 H16         33.6520    -5.9270    -9.5080 h4         1 EJ3       0.045100
     49 H17         34.9900    -2.9620    -6.0700 h1         1 EJ3       0.046033
     50 H18         33.2240    -2.8230    -5.9620 h1         1 EJ3       0.046033
     51 H19         34.1110    -3.8040    -4.7850 h1         1 EJ3       0.046033
@<TRIPOS>BOND
     1     1     2 1   
     2     1    34 1   
     3     1    35 1   
     4     1    36 1   
     5     2     3 2   
     6     2     4 1   
     7     4     5 1   
     8     4     6 1   
     9     5    14 2   
    10     5    37 1   
    11     6     7 ar  
    12     6    13 ar  
    13     7     8 ar  
    14     7    38 1   
    15     8     9 ar  
    16     8    39 1   
    17     9    10 1   
    18     9    12 ar  
    19    10    11 1   
    20    11    40 1   
    21    11    41 1   
    22    11    42 1   
    23    12    13 ar  
    24    12    43 1   
    25    13    14 1   
    26    14    15 1   
    27    15    16 2   
    28    15    17 1   
    29    17    18 1   
    30    17    44 1   
    31    18    19 ar  
    32    18    21 ar  
    33    19    20 1   
    34    19    27 ar  
    35    21    22 ar  
    36    21    45 1   
    37    22    23 1   
    38    22    26 ar  
    39    23    24 1   
    40    23    25 1   
    41    26    27 ar  
    42    26    46 1   
    43    27    28 1   
    44    28    29 2   
    45    28    30 1   
    46    29    32 1   
    47    29    47 1   
    48    30    31 2   
    49    30    48 1   
    50    31    32 1   
    51    32    33 1   
    52    33    49 1   
    53    33    50 1   
    54    33    51 1   
@<TRIPOS>SUBSTRUCTURE
     1 EJ3         1 TEMP              0 ****  ****    0 ROOT
