@<TRIPOS>MOLECULE
EJ4
   57    64     1     0     0
SMALL
abcg2


@<TRIPOS>ATOM
      1 CAB          0.8360    -3.6310    -0.1400 ca         1 EJ4       0.119100
      2 CAC          0.5580    -2.4080     0.4510 ca         1 EJ4       0.101100
      3 CAE          0.8020    -0.4670     1.5690 c5         1 EJ4       0.237500
      4 CAF          1.8940     0.2980     0.9170 cc         1 EJ4      -0.086300
      5 CAG          1.7940     1.0110    -0.2410 cd         1 EJ4      -0.099400
      6 CAH          3.0870     1.5700    -0.4880 ca         1 EJ4      -0.094800
      7 CAI          3.6180     2.3840    -1.4940 ca         1 EJ4      -0.057000
      8 CAJ          4.9480     2.7520    -1.4240 ca         1 EJ4      -0.146000
      9 CAK          5.7620     2.3220    -0.3620 ca         1 EJ4      -0.090000
     10 CAL          5.2650     1.5180     0.6460 ca         1 EJ4      -0.131000
     11 CAM          3.9230     1.1490     0.5730 ca         1 EJ4      -0.036200
     12 CAO          0.5440     1.1140    -1.0450 c6         1 EJ4       0.006800
     13 CAP         -0.6810     0.8750    -0.1660 c6         1 EJ4       0.216000
     14 CAR         -1.9490     0.5800    -1.0060 c6         1 EJ4       0.153500
     15 CAV         -0.5040    -0.3500     0.7540 c5         1 EJ4      -0.040700
     16 CAW         -0.3630    -1.5560    -0.1130 ca         1 EJ4      -0.130300
     17 CAX         -1.0100    -1.7940    -1.3020 ca         1 EJ4      -0.063300
     18 CAY         -0.7360    -3.0190    -1.9110 ca         1 EJ4      -0.097000
     19 CAZ          0.1520    -3.9190    -1.3270 ca         1 EJ4      -0.172000
     20 NAN          3.1700     0.3810     1.4110 na         1 EJ4      -0.205700
     21 NAS         -3.0620     0.6140    -0.0650 n3         1 EJ4      -0.754600
     22 OAA          1.7370    -4.4540     0.4370 oh         1 EJ4      -0.517100
     23 OAD          1.1290    -1.8870     1.5680 os         1 EJ4      -0.323100
     24 OAQ         -0.9060     2.0440     0.5850 oh         1 EJ4      -0.652000
     25 CBA         -1.8480    -0.6900    -1.8890 c6         1 EJ4      -0.044100
     26 CBB         -4.3610     0.8260    -0.6810 c3         1 EJ4       0.209800
     27 CBC         -5.3940     1.3270     0.2960 cx         1 EJ4      -0.131700
     28 CBD         -5.2800     2.7280     0.8060 cx         1 EJ4      -0.125900
     29 CBE         -6.3740     2.3670    -0.1550 cx         1 EJ4      -0.125900
     30 H1           0.6770    -0.1800     2.6160 h1         1 EJ4       0.091700
     31 H2           2.9990     2.7240    -2.3160 ha         1 EJ4       0.111000
     32 H3           5.3730     3.3800    -2.1950 ha         1 EJ4       0.109000
     33 H4           6.8000     2.6270    -0.3340 ha         1 EJ4       0.108000
     34 H5           5.8960     1.1880     1.4620 ha         1 EJ4       0.112000
     35 H6           0.4530     2.1020    -1.5050 hc         1 EJ4       0.059700
     36 H7           0.5700     0.3990    -1.8730 hc         1 EJ4       0.059700
     37 H8          -2.0900     1.4290    -1.6830 h1         1 EJ4       0.066700
     38 H9          -3.1640    -1.4650     0.3560 h1         1 EJ4       0.041200
     39 H10         -3.8670    -0.4030     1.5620 h1         1 EJ4       0.041200
     40 H13         -1.1990    -3.2810    -2.8540 ha         1 EJ4       0.115000
     41 H14          0.3450    -4.8650    -1.8220 ha         1 EJ4       0.113000
     42 H15          3.5000    -0.0560     2.2550 hn         1 EJ4       0.355000
     43 H17          1.8330    -5.2570    -0.0860 ho         1 EJ4       0.461000
     44 H18         -1.8590     2.0280     0.7790 ho         1 EJ4       0.469000
     45 H19         -2.8550    -1.0460    -2.1230 hc         1 EJ4       0.054200
     46 H20         -1.4160    -0.4030    -2.8520 hc         1 EJ4       0.054200
     47 H21         -4.2350     1.5740    -1.4680 h1         1 EJ4       0.035200
     48 H22         -4.7390    -0.0850    -1.1720 h1         1 EJ4       0.035200
     49 H23         -5.7830     0.5920     0.9930 hc         1 EJ4       0.077700
     50 H24         -5.5460     2.9260     1.8360 hc         1 EJ4       0.072200
     51 H25         -4.4560     3.3270     0.4370 hc         1 EJ4       0.072200
     52 H26         -6.2950     2.7290    -1.1740 hc         1 EJ4       0.072200
     53 H27         -7.3890     2.3110     0.2160 hc         1 EJ4       0.072200
     54 CAT         -3.0310    -0.4990     0.8680 c6         1 EJ4       0.171800
     55 CAU         -1.7340    -0.4900     1.6640 c6         1 EJ4      -0.066400
     56 H11         -1.7480     0.3340     2.3810 hc         1 EJ4       0.057200
     57 H12         -1.6630    -1.4110     2.2490 hc         1 EJ4       0.057200
@<TRIPOS>BOND
     1     1     2 ar  
     2     1    19 ar  
     3     1    22 1   
     4     2    16 ar  
     5     2    23 1   
     6     3     4 1   
     7     3    15 1   
     8     3    23 1   
     9     3    30 1   
    10     4     5 2   
    11     4    20 1   
    12     5     6 1   
    13     5    12 1   
    14     6     7 ar  
    15     6    11 ar  
    16     7     8 ar  
    17     7    31 1   
    18     8     9 ar  
    19     8    32 1   
    20     9    10 ar  
    21     9    33 1   
    22    10    11 ar  
    23    10    34 1   
    24    11    20 1   
    25    12    13 1   
    26    12    35 1   
    27    12    36 1   
    28    13    14 1   
    29    13    15 1   
    30    13    24 1   
    31    14    21 1   
    32    14    25 1   
    33    14    37 1   
    34    15    16 1   
    35    15    55 1   
    36    16    17 ar  
    37    17    18 ar  
    38    17    25 1   
    39    18    19 ar  
    40    18    40 1   
    41    19    41 1   
    42    20    42 1   
    43    21    26 1   
    44    21    54 1   
    45    22    43 1   
    46    24    44 1   
    47    25    45 1   
    48    25    46 1   
    49    26    27 1   
    50    26    47 1   
    51    26    48 1   
    52    27    28 1   
    53    27    29 1   
    54    27    49 1   
    55    28    29 1   
    56    28    50 1   
    57    28    51 1   
    58    29    52 1   
    59    29    53 1   
    60    38    54 1   
    61    39    54 1   
    62    54    55 1   
    63    55    56 1   
    64    55    57 1   
@<TRIPOS>SUBSTRUCTURE
     1 EJ4         1 TEMP              0 ****  ****    0 ROOT
