@<TRIPOS>MOLECULE
EJ4
   57    64     1     0     0
SMALL
No Charge or Current Charge


@<TRIPOS>ATOM
      1 CAB          0.8290    -3.6540    -0.1550 ca         1 EJ4       0.119100
      2 CAC          0.5730    -2.4300     0.4950 ca         1 EJ4       0.101100
      3 CAE          0.8810    -0.5200     1.6410 c5         1 EJ4       0.237500
      4 CAF          2.0010     0.2490     0.9650 cc         1 EJ4      -0.086300
      5 CAG          1.9250     1.0220    -0.1840 cd         1 EJ4      -0.099400
      6 CAH          3.2330     1.5670    -0.4650 ca         1 EJ4      -0.094800
      7 CAI          3.6900     2.3970    -1.4960 ca         1 EJ4      -0.057000
      8 CAJ          5.0550     2.7570    -1.4880 ca         1 EJ4      -0.146000
      9 CAK          5.9160     2.2860    -0.4650 ca         1 EJ4      -0.090000
     10 CAL          5.4200     1.4490     0.5590 ca         1 EJ4      -0.131000
     11 CAM          4.0620     1.1090     0.5250 ca         1 EJ4      -0.036200
     12 CAO          0.6380     1.1690    -0.9690 c6         1 EJ4       0.006800
     13 CAP         -0.6280     0.9150    -0.0840 c6         1 EJ4       0.216000
     14 CAR         -1.9250     0.6760    -0.9450 c6         1 EJ4       0.153500
     15 CAV         -0.4750    -0.3390     0.8430 c5         1 EJ4      -0.040700
     16 CAW         -0.3460    -1.5480    -0.0120 ca         1 EJ4      -0.130300
     17 CAX         -0.9950    -1.7600    -1.2300 ca         1 EJ4      -0.063300
     18 CAY         -0.7510    -2.9730    -1.9070 ca         1 EJ4      -0.097000
     19 CAZ          0.1440    -3.9250    -1.3610 ca         1 EJ4      -0.172000
     20 NAN          3.3400     0.3120     1.3970 na         1 EJ4      -0.205700
     21 NAS         -3.1090     0.7170    -0.0120 n3         1 EJ4      -0.754600
     22 OAA          1.7310    -4.5530     0.3460 oh         1 EJ4      -0.517100
     23 OAD          1.1970    -1.9620     1.6260 os         1 EJ4      -0.323100
     24 OAQ         -0.8970     2.0720     0.7150 oh         1 EJ4      -0.652000
     25 CBA         -1.8560    -0.6340    -1.8260 c6         1 EJ4      -0.044100
     26 CBB         -4.4130     0.8620    -0.7060 c3         1 EJ4       0.209800
     27 CBC         -5.5460     1.3220     0.2070 cx         1 EJ4      -0.131700
     28 CBD         -5.6130     2.7470     0.7060 cx         1 EJ4      -0.125900
     29 CBE         -6.6260     2.2510    -0.3000 cx         1 EJ4      -0.125900
     30 H1           0.7890    -0.1790     2.6810 h1         1 EJ4       0.091700
     31 H2           3.0190     2.7510    -2.2760 ha         1 EJ4       0.111000
     32 H3           5.4480     3.4010    -2.2710 ha         1 EJ4       0.109000
     33 H4           6.9660     2.5700    -0.4700 ha         1 EJ4       0.108000
     34 H5           6.0730     1.0820     1.3470 ha         1 EJ4       0.112000
     35 H6           0.5770     2.1680    -1.4200 hc         1 EJ4       0.059700
     36 H7           0.6650     0.4670    -1.8110 hc         1 EJ4       0.059700
     37 H8          -2.0100     1.5230    -1.6420 h1         1 EJ4       0.066700
     38 H9          -3.2250    -1.3730     0.4440 h1         1 EJ4       0.041200
     39 H10         -3.8970    -0.3270     1.6910 h1         1 EJ4       0.041200
     40 H13         -1.2390    -3.1710    -2.8590 ha         1 EJ4       0.115000
     41 H14          0.3230    -4.8550    -1.8950 ha         1 EJ4       0.113000
     42 H15          3.7200    -0.1620     2.2100 hn         1 EJ4       0.355000
     43 H17          1.7660    -5.3270    -0.2560 ho         1 EJ4       0.461000
     44 H18         -1.8800     1.9990     0.8060 ho         1 EJ4       0.469000
     45 H19         -2.8600    -1.0150    -2.0490 hc         1 EJ4       0.054200
     46 H20         -1.4300    -0.3670    -2.8020 hc         1 EJ4       0.054200
     47 H21         -4.3120     1.6000    -1.5130 h1         1 EJ4       0.035200
     48 H22         -4.7080    -0.0850    -1.1760 h1         1 EJ4       0.035200
     49 H23         -5.8650     0.5460     0.8980 hc         1 EJ4       0.077700
     50 H24         -5.9460     2.9090     1.7280 hc         1 EJ4       0.072200
     51 H25         -4.8520     3.4430     0.3600 hc         1 EJ4       0.072200
     52 H26         -6.5490     2.6220    -1.3190 hc         1 EJ4       0.072200
     53 H27         -7.6430     2.0820     0.0470 hc         1 EJ4       0.072200
     54 CAT         -3.0770    -0.4150     0.9650 c6         1 EJ4       0.171800
     55 CAU         -1.7420    -0.4710     1.7550 c6         1 EJ4      -0.066400
     56 H11         -1.7400     0.3260     2.5100 hc         1 EJ4       0.057200
     57 H12         -1.7010    -1.4120     2.3200 hc         1 EJ4       0.057200
@<TRIPOS>BOND
     1     1     2 ar  
     2     1    19 ar  
     3     1    22 1   
     4     2    16 ar  
     5     2    23 1   
     6     3     4 1   
     7     3    15 1   
     8     3    23 1   
     9     3    30 1   
    10     4     5 2   
    11     4    20 1   
    12     5     6 1   
    13     5    12 1   
    14     6     7 ar  
    15     6    11 ar  
    16     7     8 ar  
    17     7    31 1   
    18     8     9 ar  
    19     8    32 1   
    20     9    10 ar  
    21     9    33 1   
    22    10    11 ar  
    23    10    34 1   
    24    11    20 1   
    25    12    13 1   
    26    12    35 1   
    27    12    36 1   
    28    13    14 1   
    29    13    15 1   
    30    13    24 1   
    31    14    21 1   
    32    14    25 1   
    33    14    37 1   
    34    15    16 1   
    35    15    55 1   
    36    16    17 ar  
    37    17    18 ar  
    38    17    25 1   
    39    18    19 ar  
    40    18    40 1   
    41    19    41 1   
    42    20    42 1   
    43    21    26 1   
    44    21    54 1   
    45    22    43 1   
    46    24    44 1   
    47    25    45 1   
    48    25    46 1   
    49    26    27 1   
    50    26    47 1   
    51    26    48 1   
    52    27    28 1   
    53    27    29 1   
    54    27    49 1   
    55    28    29 1   
    56    28    50 1   
    57    28    51 1   
    58    29    52 1   
    59    29    53 1   
    60    38    54 1   
    61    39    54 1   
    62    54    55 1   
    63    55    56 1   
    64    55    57 1   
@<TRIPOS>SUBSTRUCTURE
     1 EJ4         1 TEMP              0 ****  ****    0 ROOT
