@<TRIPOS>MOLECULE
EJ5
   35    36     1     0     0
SMALL
bcc


@<TRIPOS>ATOM
      1 CAF         -2.6260     1.0240    -0.8850 ca         1 EJ5      -0.156500
      2 CAH         -3.8420     1.1390    -0.2280 ca         1 EJ5      -0.108500
      3 CAR         -4.5280     0.0110     0.2160 ca         1 EJ5      -0.131600
      4 CAO         -5.8670     0.1380     0.9280 c          1 EJ5       0.922200
      5 OAD         -6.3990    -0.9220     1.3150 o          1 EJ5      -0.830300
      6 OAB         -6.3230     1.2900     1.0630 o          1 EJ5      -0.830300
      7 CAI         -3.9550    -1.2360    -0.0170 ca         1 EJ5      -0.108500
      8 CAG         -2.7380    -1.3510    -0.6750 ca         1 EJ5      -0.156500
      9 CAQ         -2.0540    -0.2240    -1.1230 ca         1 EJ5      -0.116300
     10 CAK         -0.7220    -0.3470    -1.8080 c3         1 EJ5      -0.016100
     11 CAJ          0.4510    -0.1810    -0.8410 c3         1 EJ5      -0.072400
     12 CAL          1.8020    -0.3320    -1.5430 c3         1 EJ5       0.005800
     13 CAT          2.9660    -0.1110    -0.6270 cc         1 EJ5      -0.330400
     14 CAS          3.5350    -1.1090     0.1300 cd         1 EJ5       0.411700
     15 OAE          3.0500    -2.3450     0.0310 oh         1 EJ5      -0.461100
     16 NAM          4.5600    -0.9620     0.9850 nd         1 EJ5      -0.803300
     17 CAP          5.0510     0.2450     1.1230 cc         1 EJ5       0.751800
     18 NAA          6.0530     0.4650     1.9800 nv         1 EJ5      -0.944800
     19 NAN          4.5510     1.2980     0.4410 ns         1 EJ5      -0.511400
     20 CAU          3.4860     1.2040    -0.4590 c          1 EJ5       0.729700
     21 OAC          3.0930     2.2250    -1.0160 o          1 EJ5      -0.626500
     22 HAF         -2.1150     1.9190    -1.2230 ha         1 EJ5       0.102000
     23 HAH         -4.2680     2.1200    -0.0590 ha         1 EJ5       0.141500
     24 HAG         -2.3160    -2.3350    -0.8500 ha         1 EJ5       0.102000
     25 HAK         -0.6480    -1.3240    -2.2950 hc         1 EJ5       0.029700
     26 HAKA        -0.6410     0.4030    -2.5990 hc         1 EJ5       0.029700
     27 HAJ          0.3970     0.8020    -0.3640 hc         1 EJ5       0.046200
     28 HAJA         0.3710    -0.9210    -0.0390 hc         1 EJ5       0.046200
     29 HAL          1.8580    -1.3210    -2.0030 hc         1 EJ5       0.045200
     30 HNAA         6.5140    -0.3300     2.3870 hn         1 EJ5       0.445800
     31 HNAB         6.5490     1.3390     1.9930 hn         1 EJ5       0.445800
     32 HAI         -4.4690    -2.1280     0.3150 ha         1 EJ5       0.141500
     33 H13          1.8530     0.3850    -2.3670 hc         1 EJ5       0.045200
     34 H14          3.5570    -2.9270     0.6120 ho         1 EJ5       0.440000
     35 HNAN         4.9470     2.2180     0.5800 hn         1 EJ5       0.320500
@<TRIPOS>BOND
     1     1     2 ar  
     2     1     9 ar  
     3     1    22 1   
     4     2     3 ar  
     5     2    23 1   
     6     3     4 1   
     7     3     7 ar  
     8     4     5 1   
     9     4     6 1   
    10     7     8 ar  
    11     7    32 1   
    12     8     9 ar  
    13     8    24 1   
    14     9    10 1   
    15    10    11 1   
    16    10    25 1   
    17    10    26 1   
    18    11    12 1   
    19    11    27 1   
    20    11    28 1   
    21    12    13 1   
    22    12    29 1   
    23    12    33 1   
    24    13    14 2   
    25    13    20 1   
    26    14    15 1   
    27    14    16 1   
    28    15    34 1   
    29    16    17 2   
    30    17    18 1   
    31    17    19 1   
    32    18    30 1   
    33    18    31 1   
    34    19    20 1   
    35    19    35 1   
    36    20    21 2   
@<TRIPOS>SUBSTRUCTURE
     1 EJ5         1 TEMP              0 ****  ****    0 ROOT
