@<TRIPOS>MOLECULE
EJ5
   35    36     1     0     0
SMALL
No Charge or Current Charge


@<TRIPOS>ATOM
      1 CAF         -2.6890     1.0460    -1.0090 ca         1 EJ5      -0.138500
      2 CAH         -3.9280     1.1780    -0.3590 ca         1 EJ5      -0.090500
      3 CAR         -4.5770     0.0520     0.1990 ca         1 EJ5      -0.131600
      4 CAO         -5.9190     0.1930     0.9030 c          1 EJ5       0.711600
      5 OAD         -6.4450    -0.8080     1.3710 o          1 EJ5      -0.725000
      6 OAB         -6.4300     1.3020     0.9770 o          1 EJ5      -0.725000
      7 CAI         -3.9460    -1.2100     0.0870 ca         1 EJ5      -0.090500
      8 CAG         -2.7060    -1.3380    -0.5640 ca         1 EJ5      -0.138500
      9 CAQ         -2.0710    -0.2120    -1.1170 ca         1 EJ5      -0.116300
     10 CAK         -0.7260    -0.3530    -1.8170 c3         1 EJ5      -0.016100
     11 CAJ          0.4580    -0.1710    -0.8440 c3         1 EJ5      -0.072400
     12 CAL          1.8360    -0.3110    -1.5260 c3         1 EJ5       0.005800
     13 CAT          2.9890    -0.1470    -0.5540 cc         1 EJ5      -0.330400
     14 CAS          3.6340    -1.1960     0.0670 cd         1 EJ5       0.411700
     15 OAE          3.3510    -2.4790    -0.0840 oh         1 EJ5      -0.500100
     16 NAM          4.6760    -1.0240     0.9450 nd         1 EJ5      -0.803300
     17 CAP          4.9950     0.2220     1.1340 cc         1 EJ5       0.751800
     18 NAA          5.9940     0.4320     1.9620 nv         1 EJ5      -1.055200
     19 NAN          4.4340     1.3000     0.5850 ns         1 EJ5      -0.444400
     20 CAU          3.4110     1.2330    -0.2810 c          1 EJ5       0.587200
     21 OAC          2.9160     2.2390    -0.7610 o          1 EJ5      -0.551000
     22 HAF         -2.2080     1.9260    -1.4280 ha         1 EJ5       0.084000
     23 HAH         -4.3840     2.1640    -0.2910 ha         1 EJ5       0.123500
     24 HAG         -2.2380    -2.3170    -0.6360 ha         1 EJ5       0.084000
     25 HAK         -0.6510    -1.3380    -2.2950 hc         1 EJ5       0.029700
     26 HAKA        -0.6430     0.3860    -2.6250 hc         1 EJ5       0.029700
     27 HAJ          0.3850     0.8160    -0.3720 hc         1 EJ5       0.046200
     28 HAJA         0.3790    -0.9140    -0.0410 hc         1 EJ5       0.046200
     29 HAL          1.8920    -1.2950    -2.0090 hc         1 EJ5       0.045200
     30 HNAA         6.4820    -0.4240     2.1930 hn         1 EJ5       0.501000
     31 HNAB         6.5950     1.2200     1.7560 hn         1 EJ5       0.501000
     32 HAI         -4.4150    -2.0980     0.5050 ha         1 EJ5       0.123500
     33 H13          1.9120     0.4190    -2.3410 hc         1 EJ5       0.045200
     34 H14          4.0080    -2.8940     0.5090 ho         1 EJ5       0.479000
     35 HNAN         4.7610     2.2160     0.8380 hn         1 EJ5       0.320500
@<TRIPOS>BOND
     1     1     2 ar  
     2     1     9 ar  
     3     1    22 1   
     4     2     3 ar  
     5     2    23 1   
     6     3     4 1   
     7     3     7 ar  
     8     4     5 1   
     9     4     6 1   
    10     7     8 ar  
    11     7    32 1   
    12     8     9 ar  
    13     8    24 1   
    14     9    10 1   
    15    10    11 1   
    16    10    25 1   
    17    10    26 1   
    18    11    12 1   
    19    11    27 1   
    20    11    28 1   
    21    12    13 1   
    22    12    29 1   
    23    12    33 1   
    24    13    14 2   
    25    13    20 1   
    26    14    15 1   
    27    14    16 1   
    28    15    34 1   
    29    16    17 2   
    30    17    18 1   
    31    17    19 1   
    32    18    30 1   
    33    18    31 1   
    34    19    20 1   
    35    19    35 1   
    36    20    21 2   
@<TRIPOS>SUBSTRUCTURE
     1 EJ5         1 TEMP              0 ****  ****    0 ROOT
