@<TRIPOS>MOLECULE
EJ6
   58    61     1     0     0
SMALL
abcg2


@<TRIPOS>ATOM
      1 CL1        -38.8820   -68.4510    80.9750 cl         1 EJ6      -0.176000
      2 C26        -38.6530   -67.8680    79.3670 ca         1 EJ6       0.197000
      3 C25        -37.9050   -68.6370    78.4900 ca         1 EJ6      -0.155000
      4 C24        -37.6410   -68.1490    77.2260 ca         1 EJ6       0.007000
      5 C27        -39.1940   -66.6350    79.0090 ca         1 EJ6       0.148000
      6 N32        -39.9510   -65.8720    79.9080 nh         1 EJ6      -0.743400
      7 C34        -41.2980   -66.3610    80.1750 c3         1 EJ6       0.166100
      8 C31        -39.9080   -64.4590    79.5820 c6         1 EJ6       0.137800
      9 C30        -40.2700   -64.2400    78.1300 c6         1 EJ6       0.125600
     10 O29        -39.3740   -64.9700    77.2930 os         1 EJ6      -0.326100
     11 C28        -38.9120   -66.1450    77.7200 ca         1 EJ6       0.221100
     12 C23        -38.1280   -66.9050    76.8430 ca         1 EJ6      -0.341500
     13 S20        -37.7680   -66.3630    75.1890 sy         1 EJ6       1.172600
     14 O21        -37.6660   -64.9190    75.1600 o          1 EJ6      -0.524000
     15 O22        -36.6640   -67.1700    74.6960 o          1 EJ6      -0.524000
     16 N13        -39.0510   -66.7950    74.2430 n7         1 EJ6      -0.883300
     17 C11        -40.3960   -66.3140    74.5060 c3         1 EJ6       0.229200
     18 C14        -41.1410   -67.2290    75.4180 cc         1 EJ6       0.473600
     19 N18        -41.7210   -66.9510    76.5170 n2         1 EJ6      -0.465300
     20 N17        -42.2720   -68.1280    76.9090 ns         1 EJ6      -0.395400
     21 C16        -42.0260   -69.1290    76.0410 c          1 EJ6       0.661100
     22 O19        -42.3360   -70.2880    76.0350 o          1 EJ6      -0.495000
     23 O15        -41.2770   -68.5260    75.0630 os         1 EJ6      -0.399700
     24 C10        -41.1530   -66.1390    73.1690 c3         1 EJ6      -0.001400
     25 C12        -40.5340   -65.0260    72.3250 c3         1 EJ6      -0.082100
     26 C4         -42.6430   -65.9760    73.3990 ca         1 EJ6      -0.128300
     27 C3         -43.1190   -64.8710    74.0980 ca         1 EJ6       0.173000
     28 F9         -42.2310   -63.9790    74.5850 f          1 EJ6      -0.184000
     29 C2         -44.4510   -64.6300    74.3360 ca         1 EJ6      -0.153000
     30 C5         -43.5930   -66.9040    72.9390 ca         1 EJ6      -0.033300
     31 C8         -43.2260   -68.1590    72.1950 c3         1 EJ6      -0.056800
     32 C6         -44.9650   -66.6770    73.1620 ca         1 EJ6      -0.094300
     33 C7         -45.9970   -67.6420    72.6520 c3         1 EJ6      -0.046800
     34 C1         -45.3720   -65.5460    73.8540 ca         1 EJ6      -0.079000
     35 H1         -37.5090   -69.5940    78.7990 ha         1 EJ6       0.139000
     36 H2         -37.0410   -68.7380    76.5480 ha         1 EJ6       0.147000
     37 H3         -41.7080   -65.8160    81.0250 h1         1 EJ6       0.039700
     38 H4         -41.9770   -66.2330    79.3250 h1         1 EJ6       0.039700
     39 H5         -41.2830   -67.4160    80.4360 h1         1 EJ6       0.039700
     40 H6         -38.9060   -64.0710    79.7840 h1         1 EJ6       0.076200
     41 H7         -40.6010   -63.9180    80.2240 h1         1 EJ6       0.076200
     42 H8         -40.1750   -63.1950    77.8380 h1         1 EJ6       0.075200
     43 H9         -41.2920   -64.5690    77.9240 h1         1 EJ6       0.075200
     44 H10        -38.9770   -67.7470    73.9000 hn         1 EJ6       0.498000
     45 H11        -40.3240   -65.3500    75.0060 h1         1 EJ6       0.121700
     46 H12        -42.8150   -68.1920    77.7560 hn         1 EJ6       0.499000
     47 H13        -41.0030   -67.0600    72.6080 hc         1 EJ6       0.066700
     48 H14        -39.5110   -65.2850    72.0550 hc         1 EJ6       0.049367
     49 H15        -41.0990   -64.9000    71.4010 hc         1 EJ6       0.049367
     50 H16        -40.5120   -64.0700    72.8430 hc         1 EJ6       0.049367
     51 H17        -44.7620   -63.7500    74.8820 ha         1 EJ6       0.133000
     52 H18        -43.5650   -68.1080    71.1580 hc         1 EJ6       0.050033
     53 H19        -42.1640   -68.3760    72.1720 hc         1 EJ6       0.050033
     54 H20        -43.7120   -69.0260    72.6430 hc         1 EJ6       0.050033
     55 H21        -45.9630   -67.7310    71.5640 hc         1 EJ6       0.045033
     56 H22        -45.8540   -68.6470    73.0540 hc         1 EJ6       0.045033
     57 H23        -47.0000   -67.3180    72.9260 hc         1 EJ6       0.045033
     58 H24        -46.4270   -65.3740    74.0250 ha         1 EJ6       0.117000
@<TRIPOS>BOND
     1     1     2 1   
     2     2     3 ar  
     3     2     5 ar  
     4     3     4 ar  
     5     3    35 1   
     6     4    12 ar  
     7     4    36 1   
     8     5     6 1   
     9     5    11 ar  
    10     6     7 1   
    11     6     8 1   
    12     7    37 1   
    13     7    38 1   
    14     7    39 1   
    15     8     9 1   
    16     8    40 1   
    17     8    41 1   
    18     9    10 1   
    19     9    42 1   
    20     9    43 1   
    21    10    11 1   
    22    11    12 ar  
    23    12    13 1   
    24    13    14 2   
    25    13    15 2   
    26    13    16 1   
    27    16    17 1   
    28    16    44 1   
    29    17    18 1   
    30    17    24 1   
    31    17    45 1   
    32    18    19 2   
    33    18    23 1   
    34    19    20 1   
    35    20    21 1   
    36    20    46 1   
    37    21    22 2   
    38    21    23 1   
    39    24    25 1   
    40    24    26 1   
    41    24    47 1   
    42    25    48 1   
    43    25    49 1   
    44    25    50 1   
    45    26    27 ar  
    46    26    30 ar  
    47    27    28 1   
    48    27    29 ar  
    49    29    34 ar  
    50    29    51 1   
    51    30    31 1   
    52    30    32 ar  
    53    31    52 1   
    54    31    53 1   
    55    31    54 1   
    56    32    33 1   
    57    32    34 ar  
    58    33    55 1   
    59    33    56 1   
    60    33    57 1   
    61    34    58 1   
@<TRIPOS>SUBSTRUCTURE
     1 EJ6         1 TEMP              0 ****  ****    0 ROOT
