@<TRIPOS>MOLECULE
EJ6
   58    61     1     0     0
SMALL
No Charge or Current Charge


@<TRIPOS>ATOM
      1 Cl1        -40.3690   -66.7280    81.3630 cl         1 EJ6      -0.176000
      2 C26        -39.7280   -66.7850    79.7150 ca         1 EJ6       0.197000
      3 C25        -39.4810   -68.0590    79.1820 ca         1 EJ6      -0.155000
      4 C24        -38.9190   -68.2090    77.9100 ca         1 EJ6       0.007000
      5 C27        -39.4250   -65.6130    78.9640 ca         1 EJ6       0.148000
      6 N32        -39.6720   -64.2850    79.4640 nh         1 EJ6      -0.743400
      7 C34        -40.9730   -63.9250    80.0800 c3         1 EJ6       0.166100
      8 C31        -38.9230   -63.1760    78.8140 c6         1 EJ6       0.137800
      9 C30        -38.9580   -63.3730    77.2830 c6         1 EJ6       0.125600
     10 O29        -38.4620   -64.6790    76.9180 os         1 EJ6      -0.326100
     11 C28        -38.8210   -65.7820    77.6770 ca         1 EJ6       0.221100
     12 C23        -38.5750   -67.0720    77.1560 ca         1 EJ6      -0.341500
     13 S20        -37.8600   -67.2960    75.5220 sy         1 EJ6       1.172600
     14 O21        -36.7240   -66.3880    75.3550 o          1 EJ6      -0.524000
     15 O22        -37.7720   -68.7220    75.2090 o          1 EJ6      -0.524000
     16 N13        -39.0600   -66.6940    74.5310 n7         1 EJ6      -0.883300
     17 C11        -40.4950   -66.9690    74.8650 c3         1 EJ6       0.229200
     18 C14        -40.8540   -68.4550    74.8160 cc         1 EJ6       0.473600
     19 N18        -41.3810   -69.1810    75.7590 n2         1 EJ6      -0.465300
     20 N17        -41.4910   -70.4240    75.1780 ns         1 EJ6      -0.395400
     21 C16        -41.0300   -70.4540    73.8910 c          1 EJ6       0.661100
     22 O19        -41.0080   -71.3900    73.1110 o          1 EJ6      -0.495000
     23 O15        -40.6290   -69.1780    73.6800 os         1 EJ6      -0.399700
     24 C10        -41.4150   -66.1310    73.9240 c3         1 EJ6      -0.001400
     25 C12        -41.1880   -64.6010    74.0560 c3         1 EJ6      -0.082100
     26 C4         -42.9170   -66.4880    74.0930 ca         1 EJ6      -0.128300
     27 C3         -43.5480   -66.2900    75.3490 ca         1 EJ6       0.173000
     28 F9         -42.8690   -65.7790    76.4000 f          1 EJ6      -0.184000
     29 C2         -44.8910   -66.6200    75.5460 ca         1 EJ6      -0.153000
     30 C5         -43.6910   -67.0260    73.0170 ca         1 EJ6      -0.033300
     31 C8         -43.0560   -67.2390    71.6330 c3         1 EJ6      -0.056800
     32 C6         -45.0580   -67.3640    73.2360 ca         1 EJ6      -0.094300
     33 C7         -45.9410   -67.9570    72.1370 c3         1 EJ6      -0.046800
     34 C1         -45.6420   -67.1570    74.4980 ca         1 EJ6      -0.079000
     35 H1         -39.7230   -68.9420    79.7690 ha         1 EJ6       0.139000
     36 H2         -38.7440   -69.2140    77.5250 ha         1 EJ6       0.147000
     37 H3         -40.8710   -63.8320    81.1690 h1         1 EJ6       0.039700
     38 H4         -41.3500   -62.9720    79.6830 h1         1 EJ6       0.039700
     39 H5         -41.7310   -64.6890    79.8620 h1         1 EJ6       0.039700
     40 H6         -37.8770   -63.1670    79.1570 h1         1 EJ6       0.076200
     41 H7         -39.3530   -62.1930    79.0610 h1         1 EJ6       0.076200
     42 H8         -38.3580   -62.6030    76.7790 h1         1 EJ6       0.075200
     43 H9         -39.9950   -63.2810    76.9320 h1         1 EJ6       0.075200
     44 H10        -38.8210   -67.1450    73.6490 hn         1 EJ6       0.498000
     45 H11        -40.7100   -66.6380    75.8870 h1         1 EJ6       0.121700
     46 H12        -41.8760   -71.2720    75.5990 hn         1 EJ6       0.499000
     47 H13        -41.0750   -66.3760    72.9150 hc         1 EJ6       0.066700
     48 H14        -40.1630   -64.3300    73.7740 hc         1 EJ6       0.049367
     49 H15        -41.8700   -64.0570    73.3920 hc         1 EJ6       0.049367
     50 H16        -41.3570   -64.2520    75.0800 hc         1 EJ6       0.049367
     51 H17        -45.3490   -66.4610    76.5180 ha         1 EJ6       0.133000
     52 H18        -42.6340   -66.3030    71.2500 hc         1 EJ6       0.050033
     53 H19        -42.2500   -67.9810    71.6820 hc         1 EJ6       0.050033
     54 H20        -43.7530   -67.5900    70.8670 hc         1 EJ6       0.050033
     55 H21        -46.0530   -67.2590    71.2990 hc         1 EJ6       0.045033
     56 H22        -45.5200   -68.8930    71.7520 hc         1 EJ6       0.045033
     57 H23        -46.9500   -68.1860    72.5000 hc         1 EJ6       0.045033
     58 H24        -46.6860   -67.4110    74.6700 ha         1 EJ6       0.117000
@<TRIPOS>BOND
     1     1     2 1   
     2     2     3 ar  
     3     2     5 ar  
     4     3     4 ar  
     5     3    35 1   
     6     4    12 ar  
     7     4    36 1   
     8     5     6 1   
     9     5    11 ar  
    10     6     7 1   
    11     6     8 1   
    12     7    37 1   
    13     7    38 1   
    14     7    39 1   
    15     8     9 1   
    16     8    40 1   
    17     8    41 1   
    18     9    10 1   
    19     9    42 1   
    20     9    43 1   
    21    10    11 1   
    22    11    12 ar  
    23    12    13 1   
    24    13    14 2   
    25    13    15 2   
    26    13    16 1   
    27    16    17 1   
    28    16    44 1   
    29    17    18 1   
    30    17    24 1   
    31    17    45 1   
    32    18    19 2   
    33    18    23 1   
    34    19    20 1   
    35    20    21 1   
    36    20    46 1   
    37    21    22 2   
    38    21    23 1   
    39    24    25 1   
    40    24    26 1   
    41    24    47 1   
    42    25    48 1   
    43    25    49 1   
    44    25    50 1   
    45    26    27 ar  
    46    26    30 ar  
    47    27    28 1   
    48    27    29 ar  
    49    29    34 ar  
    50    29    51 1   
    51    30    31 1   
    52    30    32 ar  
    53    31    52 1   
    54    31    53 1   
    55    31    54 1   
    56    32    33 1   
    57    32    34 ar  
    58    33    55 1   
    59    33    56 1   
    60    33    57 1   
    61    34    58 1   
@<TRIPOS>SUBSTRUCTURE
     1 EJ6         1 TEMP              0 ****  ****    0 ROOT
