@<TRIPOS>MOLECULE
EJ7
   45    48     1     0     0
SMALL
No Charge or Current Charge


@<TRIPOS>ATOM
      1 C1          70.8650    48.0850     6.9770 ca         1 EJ7      -0.034000
      2 C10         67.6820    50.9840     9.2620 c3         1 EJ7      -0.069100
      3 C11         67.3480    48.6770    10.2480 cx         1 EJ7      -0.168700
      4 C12         66.5390    47.4290    10.0450 cx         1 EJ7       0.124300
      5 C14         66.1490    48.1540     7.8020 c2         1 EJ7       0.807500
      6 C17         65.9070    48.6280    10.7160 cx         1 EJ7      -0.147400
      7 C18         72.1590    46.9630     5.0460 c          1 EJ7       0.526600
      8 C19         71.8570    46.3320     3.6990 ca         1 EJ7       0.176500
      9 C2          71.9300    48.3880     7.8470 ca         1 EJ7      -0.111000
     10 C22         70.3990    45.6810     2.0200 ca         1 EJ7       0.277900
     11 C23         71.4890    45.1660     1.2560 ca         1 EJ7       0.556300
     12 C25         72.9390    45.8170     2.9320 ca         1 EJ7       0.400900
     13 C27         72.2980    44.0520    -0.7840 c3         1 EJ7       0.157900
     14 C3          71.6720    49.0230     9.0700 ca         1 EJ7      -0.123000
     15 C4          70.3620    49.3640     9.4380 ca         1 EJ7       0.135000
     16 C5          69.2650    49.0810     8.5830 ca         1 EJ7      -0.076300
     17 C6          69.5510    48.4300     7.3520 ca         1 EJ7      -0.124000
     18 C9          67.7980    49.4530     8.9880 c6         1 EJ7       0.264500
     19 F7          70.1880    49.9580    10.6390 f          1 EJ7      -0.190000
     20 N15         66.8500    49.2130     7.8700 n2         1 EJ7      -0.755900
     21 N21         70.5610    46.2680     3.2420 nb         1 EJ7      -0.619000
     22 N24         72.7710    45.2310     1.7100 nb         1 EJ7      -0.730000
     23 N8          71.0380    47.4380     5.7190 ns         1 EJ7      -0.127000
     24 O13         66.1550    47.1510     8.7160 os         1 EJ7      -0.460600
     25 O20         73.3030    47.0400     5.4890 o          1 EJ7      -0.592100
     26 O26         71.2330    44.5880     0.0280 os         1 EJ7      -0.454300
     27 H102        68.2150    51.2930    10.1650 hc         1 EJ7       0.047367
     28 H103        68.0830    51.5660     8.4240 hc         1 EJ7       0.047367
     29 H101        66.6370    51.2860     9.4010 hc         1 EJ7       0.047367
     30 H90         68.0950    48.6530    11.0350 hc         1 EJ7       0.104700
     31 H88         66.7580    46.5500    10.6560 h1         1 EJ7       0.118700
     32 H171        65.1600    49.1950    10.1670 hc         1 EJ7       0.088700
     33 H92         65.7250    48.5630    11.7860 hc         1 EJ7       0.088700
     34 H21         72.9580    48.1410     7.6010 ha         1 EJ7       0.154000
     35 H221        69.3810    45.6190     1.6390 h4         1 EJ7       0.048100
     36 H251        73.9630    45.8710     3.2980 h4         1 EJ7       0.056100
     37 H271        71.8970    43.6390    -1.7170 h1         1 EJ7       0.055700
     38 H272        73.0250    44.8330    -1.0440 h1         1 EJ7       0.055700
     39 H273        72.8270    43.2470    -0.2570 h1         1 EJ7       0.055700
     40 H31         72.4940    49.2510     9.7440 ha         1 EJ7       0.134000
     41 H61         68.7520    48.1810     6.6600 ha         1 EJ7       0.126000
     42 HAC         65.6860    48.3290     5.9280 hn         1 EJ7       0.481000
     43 HAB         65.2840    46.8410     6.6520 hn         1 EJ7       0.481000
     44 HAA         70.1750    47.2930     5.2090 hn         1 EJ7       0.178000
     45 N16         65.3810    47.8400     6.7570 nv         1 EJ7      -1.016200
@<TRIPOS>BOND
     1     1     9 ar  
     2     1    17 ar  
     3     1    23 1   
     4     2    18 1   
     5     2    27 1   
     6     2    28 1   
     7     2    29 1   
     8     3     4 1   
     9     3     6 1   
    10     3    18 1   
    11     3    30 1   
    12     4     6 1   
    13     4    24 1   
    14     4    31 1   
    15     5    20 2   
    16     5    24 1   
    17     5    45 1   
    18     6    32 1   
    19     6    33 1   
    20     7     8 1   
    21     7    23 1   
    22     7    25 2   
    23     8    12 ar  
    24     8    21 ar  
    25     9    14 ar  
    26     9    34 1   
    27    10    11 ar  
    28    10    21 ar  
    29    10    35 1   
    30    11    22 ar  
    31    11    26 1   
    32    12    22 ar  
    33    12    36 1   
    34    13    26 1   
    35    13    37 1   
    36    13    38 1   
    37    13    39 1   
    38    14    15 ar  
    39    14    40 1   
    40    15    16 ar  
    41    15    19 1   
    42    16    17 ar  
    43    16    18 1   
    44    17    41 1   
    45    18    20 1   
    46    23    44 1   
    47    42    45 1   
    48    43    45 1   
@<TRIPOS>SUBSTRUCTURE
     1 EJ7         1 TEMP              0 ****  ****    0 ROOT
