@<TRIPOS>MOLECULE
EJ7
   45    48     1     0     0
SMALL
abcg2


@<TRIPOS>ATOM
      1 C1          70.8290    47.9800     6.9770 ca         1 EJ7      -0.034000
      2 C10         67.7300    50.9700     9.0800 c3         1 EJ7      -0.069100
      3 C11         67.4470    48.7180    10.1840 cx         1 EJ7      -0.168700
      4 C12         66.5950    47.5070    10.0680 cx         1 EJ7       0.124300
      5 C14         66.2220    48.0470     7.7940 c2         1 EJ7       0.807500
      6 C17         66.0250    48.7400    10.6970 cx         1 EJ7      -0.147400
      7 C18         72.1030    46.8780     5.1380 c          1 EJ7       0.526600
      8 C19         71.8540    46.2770     3.7910 ca         1 EJ7       0.176500
      9 C2          71.8960    48.2760     7.8270 ca         1 EJ7      -0.111000
     10 C22         70.3870    45.6880     2.1450 ca         1 EJ7       0.277900
     11 C23         71.4750    45.2380     1.3620 ca         1 EJ7       0.556300
     12 C25         72.9090    45.8210     3.0180 ca         1 EJ7       0.400900
     13 C27         72.2840    44.3030    -0.6700 c3         1 EJ7       0.157900
     14 C3          71.6390    48.9540     9.0110 ca         1 EJ7      -0.123000
     15 C4          70.3490    49.3220     9.3300 ca         1 EJ7       0.135000
     16 C5          69.2520    49.0400     8.5150 ca         1 EJ7      -0.076300
     17 C6          69.5320    48.3610     7.3360 ca         1 EJ7      -0.124000
     18 C9          67.8140    49.4460     8.8900 c6         1 EJ7       0.264500
     19 F7          70.1660    49.9810    10.5090 f          1 EJ7      -0.190000
     20 N15         66.9160    49.1160     7.7890 n2         1 EJ7      -0.755900
     21 N21         70.5890    46.2010     3.3370 nb         1 EJ7      -0.619000
     22 N24         72.7200    45.3020     1.8000 nb         1 EJ7      -0.730000
     23 N8          70.9770    47.3160     5.7500 ns         1 EJ7      -0.127000
     24 O13         66.1190    47.1270     8.7850 os         1 EJ7      -0.460600
     25 O20         73.2400    46.9550     5.6010 o          1 EJ7      -0.592100
     26 O26         71.1910    44.7460     0.1570 os         1 EJ7      -0.454300
     27 H102        68.3550    51.3090     9.9030 hc         1 EJ7       0.047367
     28 H103        68.0450    51.4710     8.1630 hc         1 EJ7       0.047367
     29 H101        66.6960    51.2450     9.2880 hc         1 EJ7       0.047367
     30 H90         68.2250    48.6870    10.9330 hc         1 EJ7       0.104700
     31 H88         66.7930    46.6210    10.6520 h1         1 EJ7       0.118700
     32 H171        65.2900    49.2860    10.1180 hc         1 EJ7       0.088700
     33 H92         65.8640    48.7420    11.7660 hc         1 EJ7       0.088700
     34 H21         72.9000    47.9860     7.5690 ha         1 EJ7       0.154000
     35 H221        69.3740    45.6190     1.7660 h4         1 EJ7       0.048100
     36 H251        73.9250    45.8780     3.3850 h4         1 EJ7       0.056100
     37 H271        71.8230    43.9690    -1.5940 h1         1 EJ7       0.055700
     38 H272        72.9730    45.1260    -0.8600 h1         1 EJ7       0.055700
     39 H273        72.8150    43.4830    -0.1880 h1         1 EJ7       0.055700
     40 H31         72.4420    49.1990     9.6940 ha         1 EJ7       0.134000
     41 H61         68.7130    48.1280     6.6700 ha         1 EJ7       0.126000
     42 HAC         65.6480    48.1200     5.8610 hn         1 EJ7       0.481000
     43 HAB         65.1200    46.7390     6.7060 hn         1 EJ7       0.481000
     44 HAA         70.1300    47.1660     5.2130 hn         1 EJ7       0.178000
     45 N16         65.4090    47.7040     6.7480 nv         1 EJ7      -1.016200
@<TRIPOS>BOND
     1     1     9 ar  
     2     1    17 ar  
     3     1    23 1   
     4     2    18 1   
     5     2    27 1   
     6     2    28 1   
     7     2    29 1   
     8     3     4 1   
     9     3     6 1   
    10     3    18 1   
    11     3    30 1   
    12     4     6 1   
    13     4    24 1   
    14     4    31 1   
    15     5    20 2   
    16     5    24 1   
    17     5    45 1   
    18     6    32 1   
    19     6    33 1   
    20     7     8 1   
    21     7    23 1   
    22     7    25 2   
    23     8    12 ar  
    24     8    21 ar  
    25     9    14 ar  
    26     9    34 1   
    27    10    11 ar  
    28    10    21 ar  
    29    10    35 1   
    30    11    22 ar  
    31    11    26 1   
    32    12    22 ar  
    33    12    36 1   
    34    13    26 1   
    35    13    37 1   
    36    13    38 1   
    37    13    39 1   
    38    14    15 ar  
    39    14    40 1   
    40    15    16 ar  
    41    15    19 1   
    42    16    17 ar  
    43    16    18 1   
    44    17    41 1   
    45    18    20 1   
    46    23    44 1   
    47    42    45 1   
    48    43    45 1   
@<TRIPOS>SUBSTRUCTURE
     1 EJ7         1 TEMP              0 ****  ****    0 ROOT
