@<TRIPOS>MOLECULE
EJ8
   52    55     1     0     0
SMALL
No Charge or Current Charge


@<TRIPOS>ATOM
      1 C2           1.9300     1.9300    -0.9360 c5         1 EJ8      -0.164400
      2 C1           1.0050     2.1090    -2.1550 c5         1 EJ8       0.345700
      3 O2           0.1090     4.7560    -2.1590 o          1 EJ8      -0.631000
      4 O9          -6.8480    -1.1500    -0.9990 o          1 EJ8      -0.934833
      5 P2          -6.3760    -1.1160     0.4170 p5         1 EJ8       1.307500
      6 O10         -6.6020     0.2400     0.9990 o          1 EJ8      -0.934833
      7 O11         -7.1210    -2.1330     1.2160 o          1 EJ8      -0.934833
      8 C18         -4.5430    -1.5300     0.4880 c3         1 EJ8      -0.196400
      9 S1          -3.3110    -0.6540    -0.6240 ss         1 EJ8      -0.501000
     10 C5          -2.4440     2.0100    -0.6300 cc         1 EJ8      -0.233400
     11 C4          -1.2140     1.6070    -1.1140 cd         1 EJ8      -0.009400
     12 C6          -2.8060     3.4440    -0.6680 c          1 EJ8       0.592200
     13 O6          -3.8550     3.9120    -0.2540 o          1 EJ8      -0.561000
     14 N1          -1.8560     4.2510    -1.2130 ns         1 EJ8      -0.474500
     15 C8          -0.6390     3.9040    -1.7060 c          1 EJ8       0.610000
     16 N9          -0.3180     2.5380    -1.6460 n          1 EJ8      -0.313000
     17 O4           0.9510     0.7960    -2.7540 os         1 EJ8      -0.479000
     18 C3           3.0420     1.1330    -1.6600 c5         1 EJ8       0.159300
     19 O3           3.9590     0.4800    -0.7270 os         1 EJ8      -0.406000
     20 C14          2.2020     0.1040    -2.4830 c5         1 EJ8       0.090300
     21 C13          1.8670    -1.1910    -1.7080 c6         1 EJ8       0.117600
     22 O7           2.9990    -1.6740    -0.9570 os         1 EJ8      -0.390000
     23 CAB          3.5990    -0.7460    -0.0000 c6         1 EJ8       0.192300
     24 P            5.1770    -1.5520     0.8140 p5         1 EJ8       1.286500
     25 OP1          6.1670    -1.9550    -0.2380 o          1 EJ8      -0.908167
     26 OP2          5.8620    -0.5950     1.7400 o          1 EJ8      -0.908167
     27 OP3          4.8150    -2.7790     1.5940 o          1 EJ8      -0.908167
     28 C7           2.6370    -0.4380     1.1800 ca         1 EJ8      -0.072300
     29 CAA          1.6010    -1.3300     1.5430 ca         1 EJ8      -0.066500
     30 C9           0.7440    -1.0340     2.6180 ca         1 EJ8      -0.139500
     31 C10          0.9220     0.1440     3.3580 ca         1 EJ8      -0.157000
     32 C11          1.9670     1.0210     3.0320 ca         1 EJ8      -0.139500
     33 C12          2.8250     0.7280     1.9580 ca         1 EJ8      -0.066500
     34 H1           2.2810     2.8830    -0.5290 hc         1 EJ8       0.076200
     35 H2           1.4200     1.3770    -0.1470 hc         1 EJ8       0.076200
     36 H3           1.3910     2.8450    -2.8720 h2         1 EJ8       0.051700
     37 H6          -4.2320    -1.3760     1.5280 h1         1 EJ8       0.024700
     38 H7          -4.4710    -2.6040     0.2810 h1         1 EJ8       0.024700
     39 H8          -4.4900     1.4490    -0.2640 h1         1 EJ8       0.091700
     40 H9          -3.3760     1.1090     1.0760 h1         1 EJ8       0.091700
     41 H10         -0.8590     0.5790    -1.1160 h4         1 EJ8       0.250000
     42 H11         -2.0820     5.2310    -1.2520 hn         1 EJ8       0.303500
     43 H12          3.6240     1.7890    -2.3220 h1         1 EJ8       0.033700
     44 H13          2.7000    -0.1530    -3.4280 h1         1 EJ8       0.078700
     45 H14          1.0310    -1.0060    -1.0200 h1         1 EJ8       0.052200
     46 H15          1.5480    -1.9730    -2.4110 h1         1 EJ8       0.052200
     47 H18          1.4560    -2.2580     0.9950 ha         1 EJ8       0.133500
     48 H19         -0.0560    -1.7230     2.8780 ha         1 EJ8       0.080500
     49 H20          0.2590     0.3710     4.1900 ha         1 EJ8       0.061000
     50 H21          2.1160     1.9290     3.6120 ha         1 EJ8       0.080500
     51 H22          3.6330     1.4160     1.7200 ha         1 EJ8       0.133500
     52 C17         -3.4810     1.0930    -0.0180 c3         1 EJ8       0.131800
@<TRIPOS>BOND
     1     1     2 1   
     2     1    18 1   
     3     1    34 1   
     4     1    35 1   
     5     2    16 1   
     6     2    17 1   
     7     2    36 1   
     8     3    15 2   
     9     4     5 1   
    10     5     6 1   
    11     5     7 1   
    12     5     8 1   
    13     8     9 1   
    14     8    37 1   
    15     8    38 1   
    16     9    52 1   
    17    10    11 2   
    18    10    12 1   
    19    10    52 1   
    20    11    16 1   
    21    11    41 1   
    22    12    13 2   
    23    12    14 1   
    24    14    15 1   
    25    14    42 1   
    26    15    16 1   
    27    17    20 1   
    28    18    19 1   
    29    18    20 1   
    30    18    43 1   
    31    19    23 1   
    32    20    21 1   
    33    20    44 1   
    34    21    22 1   
    35    21    45 1   
    36    21    46 1   
    37    22    23 1   
    38    23    24 1   
    39    23    28 1   
    40    24    25 1   
    41    24    26 1   
    42    24    27 1   
    43    28    29 ar  
    44    28    33 ar  
    45    29    30 ar  
    46    29    47 1   
    47    30    31 ar  
    48    30    48 1   
    49    31    32 ar  
    50    31    49 1   
    51    32    33 ar  
    52    32    50 1   
    53    33    51 1   
    54    39    52 1   
    55    40    52 1   
@<TRIPOS>SUBSTRUCTURE
     1 EJ8         1 TEMP              0 ****  ****    0 ROOT
