@<TRIPOS>MOLECULE
EJ8
   52    55     1     0     0
SMALL
bcc


@<TRIPOS>ATOM
      1 C2           2.0860     2.1070    -1.0160 c5         1 EJ8      -0.164400
      2 C1           1.0210     2.3830    -2.0750 c5         1 EJ8       0.322500
      3 O2           0.4430     4.7870    -0.9690 o          1 EJ8      -0.706500
      4 O9          -4.1040    -3.2020     0.3360 o          1 EJ8      -0.934833
      5 P2          -5.2040    -2.1950    -0.0110 p5         1 EJ8       1.149700
      6 O10         -5.1280    -1.6520    -1.4430 o          1 EJ8      -0.934833
      7 O11         -6.6120    -2.6430     0.4040 o          1 EJ8      -0.934833
      8 C18         -4.8980    -0.7270     1.1030 c3         1 EJ8      -0.086500
      9 S1          -3.3010     0.1110     0.8880 ss         1 EJ8      -0.405200
     10 C5          -2.4920     2.0140    -0.8230 cc         1 EJ8      -0.233400
     11 C4          -1.3070     1.7850    -1.4220 cd         1 EJ8       0.040600
     12 C6          -2.7200     3.3100    -0.2200 c          1 EJ8       0.734700
     13 O6          -3.7360     3.6600     0.3510 o          1 EJ8      -0.636500
     14 N1          -1.6560     4.1870    -0.3560 ns         1 EJ8      -0.608500
     15 C8          -0.4410     3.9530    -0.9410 c          1 EJ8       0.819500
     16 N9          -0.2990     2.7010    -1.4880 n          1 EJ8      -0.380000
     17 O4           0.9100     1.2290    -2.8610 os         1 EJ8      -0.432600
     18 C3           2.9190     1.0090    -1.6860 c5         1 EJ8       0.136100
     19 O3           3.7330     0.2090    -0.8720 os         1 EJ8      -0.359600
     20 C14          1.8450     0.2390    -2.4510 c5         1 EJ8       0.067100
     21 C13          1.2240    -0.8070    -1.5390 c6         1 EJ8       0.094400
     22 O7           2.2610    -1.5850    -0.9870 os         1 EJ8      -0.343600
     23 CAB          3.1510    -0.8730    -0.1660 c6         1 EJ8       0.303700
     24 P            4.5820    -2.0660     0.2480 p5         1 EJ8       1.128700
     25 OP1          5.1370    -2.4640    -1.1190 o          1 EJ8      -0.908167
     26 OP2          5.5300    -1.2160     1.0910 o          1 EJ8      -0.908167
     27 OP3          3.8920    -3.1990     1.0040 o          1 EJ8      -0.908167
     28 C7           2.4960    -0.4160     1.1150 ca         1 EJ8      -0.072300
     29 CAA          1.4180    -1.1090     1.6620 ca         1 EJ8      -0.084500
     30 C9           0.8550    -0.7190     2.8700 ca         1 EJ8      -0.157500
     31 C10          1.3830     0.3530     3.5750 ca         1 EJ8      -0.175000
     32 C11          2.4800     1.0300     3.0570 ca         1 EJ8      -0.157500
     33 C12          3.0340     0.6440     1.8450 ca         1 EJ8      -0.084500
     34 H1           2.6680     2.9950    -0.7800 hc         1 EJ8       0.076200
     35 H2           1.6240     1.7550    -0.0930 hc         1 EJ8       0.076200
     36 H3           1.2870     3.2280    -2.7120 h2         1 EJ8       0.051700
     37 H6          -5.6870     0.0260     1.0050 h1         1 EJ8       0.024700
     38 H7          -4.9050    -1.0450     2.1500 h1         1 EJ8       0.024700
     39 H8          -3.4620     0.2290    -1.5220 h1         1 EJ8       0.091700
     40 H9          -4.5320     1.3820    -0.7390 h1         1 EJ8       0.091700
     41 H10         -1.1090     0.8360    -1.8950 h4         1 EJ8       0.200000
     42 H11         -1.7700     5.1080     0.0490 hn         1 EJ8       0.303500
     43 H12          3.5980     1.4810    -2.4030 h1         1 EJ8       0.033700
     44 H13          2.2390    -0.2380    -3.3510 h1         1 EJ8       0.078700
     45 H14          0.6150    -0.3350    -0.7540 h1         1 EJ8       0.052200
     46 H15          0.5660    -1.4780    -2.0950 h1         1 EJ8       0.052200
     47 H18          1.0040    -1.9580     1.1360 ha         1 EJ8       0.151500
     48 H19          0.0040    -1.2620     3.2630 ha         1 EJ8       0.098500
     49 H20          0.9470     0.6570     4.5190 ha         1 EJ8       0.079000
     50 H21          2.9100     1.8610     3.6020 ha         1 EJ8       0.098500
     51 H22          3.8870     1.1810     1.4570 ha         1 EJ8       0.151500
     52 C17         -3.5300     0.9510    -0.7130 c3         1 EJ8       0.083900
@<TRIPOS>BOND
     1     1     2 1   
     2     1    18 1   
     3     1    34 1   
     4     1    35 1   
     5     2    16 1   
     6     2    17 1   
     7     2    36 1   
     8     3    15 2   
     9     4     5 1   
    10     5     6 1   
    11     5     7 1   
    12     5     8 1   
    13     8     9 1   
    14     8    37 1   
    15     8    38 1   
    16     9    52 1   
    17    10    11 2   
    18    10    12 1   
    19    10    52 1   
    20    11    16 1   
    21    11    41 1   
    22    12    13 2   
    23    12    14 1   
    24    14    15 1   
    25    14    42 1   
    26    15    16 1   
    27    17    20 1   
    28    18    19 1   
    29    18    20 1   
    30    18    43 1   
    31    19    23 1   
    32    20    21 1   
    33    20    44 1   
    34    21    22 1   
    35    21    45 1   
    36    21    46 1   
    37    22    23 1   
    38    23    24 1   
    39    23    28 1   
    40    24    25 1   
    41    24    26 1   
    42    24    27 1   
    43    28    29 ar  
    44    28    33 ar  
    45    29    30 ar  
    46    29    47 1   
    47    30    31 ar  
    48    30    48 1   
    49    31    32 ar  
    50    31    49 1   
    51    32    33 ar  
    52    32    50 1   
    53    33    51 1   
    54    39    52 1   
    55    40    52 1   
@<TRIPOS>SUBSTRUCTURE
     1 EJ8         1 TEMP              0 ****  ****    0 ROOT
