@<TRIPOS>MOLECULE
EJ9
   78    81     1     0     0
SMALL
abcg2


@<TRIPOS>ATOM
      1 C1          33.8280   -34.2160   -30.5360 c          1 EJ9       0.729000
      2 C2          33.9140   -33.6910   -29.0710 c3         1 EJ9       0.043600
      3 C3          32.6740   -34.0710   -26.9910 c3         1 EJ9       0.185000
      4 C4          33.7300   -33.6800   -25.9560 c3         1 EJ9      -0.101433
      5 C5          31.8550   -35.2460   -26.4650 c3         1 EJ9      -0.101433
      6 C6          31.7430   -32.8870   -27.2560 c3         1 EJ9      -0.101433
      7 C9          37.5820   -34.1940   -28.2010 ca         1 EJ9       0.232000
      8 C10         38.0480   -32.8880   -28.0520 cp         1 EJ9      -0.058000
      9 C11         37.1490   -31.8260   -28.1900 ca         1 EJ9      -0.053300
     10 C12         35.8040   -32.0950   -28.4850 cp         1 EJ9      -0.031000
     11 C13         34.8550   -30.9500   -28.5430 cp         1 EJ9      -0.057000
     12 C14         34.5620   -30.2260   -27.3860 ca         1 EJ9      -0.080000
     13 C23         39.4880   -32.6290   -27.8090 cp         1 EJ9      -0.023000
     14 C25         41.7690   -32.6090   -28.6560 ca         1 EJ9      -0.081300
     15 C26         42.2190   -32.0750   -27.4390 ca         1 EJ9      -0.076300
     16 O6          38.7670   -37.3240   -26.6200 o          1 EJ9      -0.548000
     17 S           38.9000   -35.8740   -26.5270 s6         1 EJ9       1.173100
     18 O5          40.1900   -35.3520   -26.1120 o          1 EJ9      -0.548000
     19 C31         37.6690   -35.2280   -25.4170 c3         1 EJ9      -0.362100
     20 C8          36.2560   -34.4730   -28.5440 ca         1 EJ9      -0.067300
     21 C32         35.8690   -35.9120   -28.7710 c3         1 EJ9      -0.060800
     22 C28         39.9420   -32.1000   -26.6090 ca         1 EJ9      -0.096000
     23 C27         41.2920   -31.8290   -26.4320 ca         1 EJ9      -0.104000
     24 C29         43.6730   -31.7710   -27.2320 c3         1 EJ9      -0.039800
     25 C30         42.7330   -32.8850   -29.7730 c3         1 EJ9      -0.040800
     26 C24         40.4160   -32.8750   -28.8180 ca         1 EJ9      -0.070000
     27 C7          35.3600   -33.4090   -28.6990 ca         1 EJ9       0.005700
     28 O3          33.2680   -34.5710   -28.1870 os         1 EJ9      -0.428000
     29 O2          34.5030   -33.5600   -31.3550 o          1 EJ9      -0.705000
     30 O1          33.0950   -35.1890   -30.7700 o          1 EJ9      -0.705000
     31 C21         34.2430   -30.5560   -29.7270 ca         1 EJ9      -0.044000
     32 C20         33.3410   -29.4980   -29.7850 ca         1 EJ9      -0.161300
     33 C16         33.0480   -28.8080   -28.6070 ca         1 EJ9       0.128100
     34 C15         33.6690   -29.1710   -27.4130 ca         1 EJ9      -0.160000
     35 C19         32.6970   -29.0930   -31.0840 c6         1 EJ9      -0.023100
     36 C18         32.1430   -27.6800   -30.9860 c6         1 EJ9      -0.113400
     37 C17         31.3670   -27.5380   -29.6950 c6         1 EJ9       0.164600
     38 O4          32.1840   -27.7700   -28.5540 os         1 EJ9      -0.355100
     39 H1          33.3790   -32.7380   -29.0950 h1         1 EJ9       0.039700
     40 H2          33.2530   -33.4340   -25.0060 hc         1 EJ9       0.033033
     41 H3          34.4280   -34.5000   -25.7800 hc         1 EJ9       0.033033
     42 H4          34.3030   -32.8090   -26.2700 hc         1 EJ9       0.033033
     43 H5          31.3720   -34.9830   -25.5230 hc         1 EJ9       0.033033
     44 H6          31.0760   -35.5320   -27.1740 hc         1 EJ9       0.033033
     45 H7          32.4880   -36.1170   -26.2850 hc         1 EJ9       0.033033
     46 H8          31.1830   -32.6530   -26.3500 hc         1 EJ9       0.033033
     47 H9          32.2800   -31.9800   -27.5390 hc         1 EJ9       0.033033
     48 H10         31.0210   -33.1200   -28.0420 hc         1 EJ9       0.033033
     49 H11         35.0310   -30.4970   -26.4480 ha         1 EJ9       0.109000
     50 H12         37.5560   -30.0360   -27.0440 hc         1 EJ9       0.040033
     51 H13         38.6790   -30.3130   -28.3600 hc         1 EJ9       0.040033
     52 H14         37.0520   -29.7300   -28.6940 hc         1 EJ9       0.040033
     53 H15         37.8950   -35.6530   -24.4390 h1         1 EJ9       0.101700
     54 H16         37.7330   -34.1440   -25.3660 h1         1 EJ9       0.101700
     55 H17         36.6760   -35.5360   -25.7330 h1         1 EJ9       0.101700
     56 H18         38.3150   -36.0610   -28.6600 hn         1 EJ9       0.494000
     57 H19         36.4560   -36.3510   -29.5830 hc         1 EJ9       0.055033
     58 H20         36.0440   -36.5250   -27.8850 hc         1 EJ9       0.055033
     59 H21         34.8280   -36.0380   -29.0360 hc         1 EJ9       0.055033
     60 H22         39.2420   -31.9010   -25.8060 ha         1 EJ9       0.105000
     61 H23         41.6320   -31.4180   -25.4890 ha         1 EJ9       0.100000
     62 H24         44.0410   -31.0450   -27.9610 hc         1 EJ9       0.033033
     63 H25         43.8560   -31.3630   -26.2390 hc         1 EJ9       0.033033
     64 H26         44.2920   -32.6640   -27.3440 hc         1 EJ9       0.033033
     65 H27         43.2440   -31.9760   -30.0970 hc         1 EJ9       0.035033
     66 H28         43.5110   -33.5880   -29.4690 hc         1 EJ9       0.035033
     67 H29         42.2240   -33.3050   -30.6390 hc         1 EJ9       0.035033
     68 H30         40.0700   -33.2800   -29.7630 ha         1 EJ9       0.122000
     69 H32         34.4580   -31.1070   -30.6350 ha         1 EJ9       0.164000
     70 H33         33.4420   -28.6240   -26.5060 ha         1 EJ9       0.114000
     71 H34         31.8870   -29.7880   -31.3270 hc         1 EJ9       0.060200
     72 H35         33.4200   -29.1720   -31.8980 hc         1 EJ9       0.060200
     73 H36         32.9540   -26.9470   -31.0140 hc         1 EJ9       0.047700
     74 H37         31.4820   -27.4600   -31.8260 hc         1 EJ9       0.047700
     75 H38         30.9650   -26.5330   -29.5730 h1         1 EJ9       0.044700
     76 H39         30.5240   -28.2390   -29.6870 h1         1 EJ9       0.044700
     77 C22         37.6340   -30.4050   -28.0690 c3         1 EJ9      -0.044800
     78 N           38.4920   -35.2780   -28.0400 nu         1 EJ9      -0.869100
@<TRIPOS>BOND
     1     1     2 1   
     2     1    29 1   
     3     1    30 1   
     4     2    27 1   
     5     2    28 1   
     6     2    39 1   
     7     3     4 1   
     8     3     5 1   
     9     3     6 1   
    10     3    28 1   
    11     4    40 1   
    12     4    41 1   
    13     4    42 1   
    14     5    43 1   
    15     5    44 1   
    16     5    45 1   
    17     6    46 1   
    18     6    47 1   
    19     6    48 1   
    20     7     8 ar  
    21     7    20 ar  
    22     7    78 1   
    23     8     9 ar  
    24     8    13 1   
    25     9    10 ar  
    26     9    77 1   
    27    10    11 1   
    28    10    27 ar  
    29    11    12 ar  
    30    11    31 ar  
    31    12    34 ar  
    32    12    49 1   
    33    13    22 ar  
    34    13    26 ar  
    35    14    15 ar  
    36    14    25 1   
    37    14    26 ar  
    38    15    23 ar  
    39    15    24 1   
    40    16    17 2   
    41    17    18 2   
    42    17    19 1   
    43    17    78 1   
    44    19    53 1   
    45    19    54 1   
    46    19    55 1   
    47    20    21 1   
    48    20    27 ar  
    49    21    57 1   
    50    21    58 1   
    51    21    59 1   
    52    22    23 ar  
    53    22    60 1   
    54    23    61 1   
    55    24    62 1   
    56    24    63 1   
    57    24    64 1   
    58    25    65 1   
    59    25    66 1   
    60    25    67 1   
    61    26    68 1   
    62    31    32 ar  
    63    31    69 1   
    64    32    33 ar  
    65    32    35 1   
    66    33    34 ar  
    67    33    38 1   
    68    34    70 1   
    69    35    36 1   
    70    35    71 1   
    71    35    72 1   
    72    36    37 1   
    73    36    73 1   
    74    36    74 1   
    75    37    38 1   
    76    37    75 1   
    77    37    76 1   
    78    50    77 1   
    79    51    77 1   
    80    52    77 1   
    81    56    78 1   
@<TRIPOS>SUBSTRUCTURE
     1 EJ9         1 TEMP              0 ****  ****    0 ROOT
