@<TRIPOS>MOLECULE
EJ9
   78    81     1     0     0
SMALL
No Charge or Current Charge


@<TRIPOS>ATOM
      1 C1          33.5200   -34.0100   -30.4390 c          1 EJ9       0.729000
      2 C2          33.7630   -33.6020   -28.9380 c3         1 EJ9       0.043600
      3 C3          32.7790   -34.1560   -26.6590 c3         1 EJ9       0.185000
      4 C4          34.0080   -33.7100   -25.8290 c3         1 EJ9      -0.101433
      5 C5          32.1630   -35.4300   -26.0370 c3         1 EJ9      -0.101433
      6 C6          31.7060   -33.0400   -26.7630 c3         1 EJ9      -0.101433
      7 C9          37.5580   -34.1520   -28.2200 ca         1 EJ9       0.232000
      8 C10         38.0230   -32.8120   -28.0850 cp         1 EJ9      -0.058000
      9 C11         37.1020   -31.7400   -28.2460 ca         1 EJ9      -0.053300
     10 C12         35.7280   -31.9960   -28.4970 cp         1 EJ9      -0.031000
     11 C13         34.7780   -30.8420   -28.5950 cp         1 EJ9      -0.057000
     12 C14         34.3680   -30.1460   -27.4340 ca         1 EJ9      -0.080000
     13 C23         39.4760   -32.5210   -27.8380 cp         1 EJ9      -0.023000
     14 C25         41.8280   -32.6260   -28.5690 ca         1 EJ9      -0.081300
     15 C26         42.2280   -31.9370   -27.3990 ca         1 EJ9      -0.076300
     16 O6          39.7140   -37.0800   -27.0150 o          1 EJ9      -0.548000
     17 S           38.9510   -35.8930   -26.6300 s6         1 EJ9       1.173100
     18 O5          39.5730   -34.8340   -25.8360 o          1 EJ9      -0.548000
     19 C31         37.4570   -36.4190   -25.8190 c3         1 EJ9      -0.362100
     20 C8          36.1990   -34.4200   -28.5500 ca         1 EJ9      -0.067300
     21 C32         35.7280   -35.8750   -28.7570 c3         1 EJ9      -0.060800
     22 C28         39.8970   -31.8340   -26.6760 ca         1 EJ9      -0.096000
     23 C27         41.2540   -31.5460   -26.4600 ca         1 EJ9      -0.104000
     24 C29         43.6950   -31.6110   -27.1350 c3         1 EJ9      -0.039800
     25 C30         42.8470   -33.0710   -29.6130 c3         1 EJ9      -0.040800
     26 C24         40.4620   -32.9080   -28.7750 ca         1 EJ9      -0.070000
     27 C7          35.2710   -33.3410   -28.6550 ca         1 EJ9       0.005700
     28 O3          33.1900   -34.5690   -27.9920 os         1 EJ9      -0.428000
     29 O2          34.1250   -33.4020   -31.3130 o          1 EJ9      -0.705000
     30 O1          32.7420   -34.9230   -30.6960 o          1 EJ9      -0.705000
     31 C21         34.2930   -30.4030   -29.8490 ca         1 EJ9      -0.044000
     32 C20         33.3980   -29.3210   -29.9450 ca         1 EJ9      -0.161300
     33 C16         32.9750   -28.6620   -28.7680 ca         1 EJ9       0.128100
     34 C15         33.4730   -29.0670   -27.5210 ca         1 EJ9      -0.160000
     35 C19         32.8960   -28.8680   -31.3180 c6         1 EJ9      -0.023100
     36 C18         32.2770   -27.4570   -31.2600 c6         1 EJ9      -0.113400
     37 C17         31.3590   -27.3440   -30.0280 c6         1 EJ9       0.164600
     38 O4          32.1010   -27.5950   -28.8150 os         1 EJ9      -0.355100
     39 H1          33.2070   -32.6660   -28.8550 h1         1 EJ9       0.039700
     40 H2          33.7360   -33.5970   -24.7730 hc         1 EJ9       0.033033
     41 H3          34.8120   -34.4510   -25.8920 hc         1 EJ9       0.033033
     42 H4          34.3950   -32.7450   -26.1670 hc         1 EJ9       0.033033
     43 H5          31.8110   -35.2340   -25.0160 hc         1 EJ9       0.033033
     44 H6          31.3080   -35.7790   -26.6290 hc         1 EJ9       0.033033
     45 H7          32.9020   -36.2390   -25.9910 hc         1 EJ9       0.033033
     46 H8          31.2130   -32.8930   -25.7950 hc         1 EJ9       0.033033
     47 H9          32.1470   -32.0780   -27.0490 hc         1 EJ9       0.033033
     48 H10         30.9370   -33.3040   -27.4980 hc         1 EJ9       0.033033
     49 H11         34.7480   -30.4470   -26.4610 ha         1 EJ9       0.109000
     50 H12         37.5380   -29.9040   -27.1470 hc         1 EJ9       0.040033
     51 H13         38.6290   -30.1770   -28.5170 hc         1 EJ9       0.040033
     52 H14         37.0090   -29.6130   -28.8100 hc         1 EJ9       0.040033
     53 H15         37.7450   -36.8460   -24.8540 h1         1 EJ9       0.101700
     54 H16         36.8270   -35.5350   -25.6850 h1         1 EJ9       0.101700
     55 H17         36.9750   -37.1690   -26.4520 h1         1 EJ9       0.101700
     56 H18         38.2530   -36.0370   -28.6200 hn         1 EJ9       0.494000
     57 H19         36.5340   -36.5690   -29.0140 hc         1 EJ9       0.055033
     58 H20         35.2400   -36.2610   -27.8550 hc         1 EJ9       0.055033
     59 H21         35.0150   -35.9660   -29.5800 hc         1 EJ9       0.055033
     60 H22         39.1620   -31.5290   -25.9360 ha         1 EJ9       0.105000
     61 H23         41.5470   -31.0180   -25.5550 ha         1 EJ9       0.100000
     62 H24         44.1080   -30.9790   -27.9300 hc         1 EJ9       0.033033
     63 H25         43.8290   -31.0740   -26.1890 hc         1 EJ9       0.033033
     64 H26         44.2990   -32.5250   -27.0810 hc         1 EJ9       0.033033
     65 H27         43.3880   -32.2120   -30.0280 hc         1 EJ9       0.035033
     66 H28         43.5840   -33.7570   -29.1790 hc         1 EJ9       0.035033
     67 H29         42.3710   -33.5920   -30.4520 hc         1 EJ9       0.035033
     68 H30         40.1500   -33.4340   -29.6730 ha         1 EJ9       0.122000
     69 H32         34.6240   -30.9090   -30.7530 ha         1 EJ9       0.164000
     70 H33         33.1620   -28.5450   -26.6190 ha         1 EJ9       0.114000
     71 H34         32.1430   -29.5840   -31.6770 hc         1 EJ9       0.060200
     72 H35         33.7140   -28.8840   -32.0520 hc         1 EJ9       0.060200
     73 H36         33.0720   -26.7000   -31.1940 hc         1 EJ9       0.047700
     74 H37         31.7130   -27.2490   -32.1780 hc         1 EJ9       0.047700
     75 H38         30.9090   -26.3430   -29.9720 h1         1 EJ9       0.044700
     76 H39         30.5470   -28.0810   -30.1030 h1         1 EJ9       0.044700
     77 C22         37.5950   -30.2850   -28.1730 c3         1 EJ9      -0.044800
     78 N           38.4610   -35.2170   -28.0700 nu         1 EJ9      -0.869100
@<TRIPOS>BOND
     1     1     2 1   
     2     1    29 1   
     3     1    30 1   
     4     2    27 1   
     5     2    28 1   
     6     2    39 1   
     7     3     4 1   
     8     3     5 1   
     9     3     6 1   
    10     3    28 1   
    11     4    40 1   
    12     4    41 1   
    13     4    42 1   
    14     5    43 1   
    15     5    44 1   
    16     5    45 1   
    17     6    46 1   
    18     6    47 1   
    19     6    48 1   
    20     7     8 ar  
    21     7    20 ar  
    22     7    78 1   
    23     8     9 ar  
    24     8    13 1   
    25     9    10 ar  
    26     9    77 1   
    27    10    11 1   
    28    10    27 ar  
    29    11    12 ar  
    30    11    31 ar  
    31    12    34 ar  
    32    12    49 1   
    33    13    22 ar  
    34    13    26 ar  
    35    14    15 ar  
    36    14    25 1   
    37    14    26 ar  
    38    15    23 ar  
    39    15    24 1   
    40    16    17 2   
    41    17    18 2   
    42    17    19 1   
    43    17    78 1   
    44    19    53 1   
    45    19    54 1   
    46    19    55 1   
    47    20    21 1   
    48    20    27 ar  
    49    21    57 1   
    50    21    58 1   
    51    21    59 1   
    52    22    23 ar  
    53    22    60 1   
    54    23    61 1   
    55    24    62 1   
    56    24    63 1   
    57    24    64 1   
    58    25    65 1   
    59    25    66 1   
    60    25    67 1   
    61    26    68 1   
    62    31    32 ar  
    63    31    69 1   
    64    32    33 ar  
    65    32    35 1   
    66    33    34 ar  
    67    33    38 1   
    68    34    70 1   
    69    35    36 1   
    70    35    71 1   
    71    35    72 1   
    72    36    37 1   
    73    36    73 1   
    74    36    74 1   
    75    37    38 1   
    76    37    75 1   
    77    37    76 1   
    78    50    77 1   
    79    51    77 1   
    80    52    77 1   
    81    56    78 1   
@<TRIPOS>SUBSTRUCTURE
     1 EJ9         1 TEMP              0 ****  ****    0 ROOT
