@<TRIPOS>MOLECULE
EJB
   65    68     1     0     0
SMALL
bcc


@<TRIPOS>ATOM
      1 C17         28.1060    17.7530    25.0430 ca         1 EJB       0.421600
      2 C20         28.3830    17.5870    22.7740 ca         1 EJB       0.405200
      3 C21         29.3260    16.5850    22.8980 ca         1 EJB      -0.256300
      4 C22         29.6590    16.1580    24.1760 ca         1 EJB      -0.074000
      5 C11         32.6350    13.0230    26.8760 c3         1 EJB       0.009700
      6 C12         31.3290    12.3600    27.3000 c3         1 EJB      -0.063400
      7 C14         29.3670    13.8870    26.6270 c3         1 EJB       0.156800
      8 C19         26.4740    19.5580    25.8230 c3         1 EJB      -0.075100
      9 C1          39.7990     8.2130    25.7060 ca         1 EJB       0.704900
     10 O1          36.6600    13.6580    24.2920 oh         1 EJB      -0.561800
     11 C8          35.7420    13.2320    25.2670 c5         1 EJB       0.120100
     12 C7          35.7180    11.7120    25.2500 c5         1 EJB       0.111100
     13 O           35.7400    11.1870    23.9600 oh         1 EJB      -0.553800
     14 C9          36.2490    13.5190    26.6910 c5         1 EJB       0.111100
     15 O2          36.9620    12.3580    27.1070 os         1 EJB      -0.396600
     16 C6          36.9640    11.3960    26.0840 c5         1 EJB       0.222800
     17 N3          36.9780    10.0840    26.6630 na         1 EJB      -0.167100
     18 C2          37.9500     9.1480    26.4690 ca         1 EJB       0.488800
     19 N2          39.0340     9.2860    25.7010 nb         1 EJB      -0.754000
     20 N1          39.6110     7.0690    26.3590 nb         1 EJB      -0.829000
     21 C5          36.0370     9.5630    27.5300 cc         1 EJB      -0.116100
     22 C4          36.3900     8.3000    27.8900 cd         1 EJB      -0.163200
     23 C3          37.6160     8.0170    27.2140 ca         1 EJB      -0.391400
     24 C           38.5210     6.9410    27.1230 ca         1 EJB       0.763200
     25 N           38.3300     5.7850    27.7690 nv         1 EJB      -0.969500
     26 C10         35.2020    13.8960    27.7270 c3         1 EJB       0.003700
     27 S           33.9240    12.6690    28.1110 ss         1 EJB      -0.350200
     28 C13         30.1840    12.6400    26.3190 c3         1 EJB      -0.072400
     29 N4          30.1750    15.0930    26.7250 n7         1 EJB      -0.821200
     30 C16         29.0460    16.7340    25.2770 ca         1 EJB      -0.204600
     31 N5          27.7930    18.1580    23.8190 nb         1 EJB      -0.674000
     32 C18         27.4250    18.4350    26.2010 c3         1 EJB      -0.126700
     33 H1          28.0900    17.9510    21.7950 h4         1 EJB       0.018100
     34 H2          29.7880    16.1510    22.0220 ha         1 EJB       0.141000
     35 H3          30.3950    15.3780    24.3230 ha         1 EJB       0.152000
     36 H4          32.9280    12.6390    25.8970 h1         1 EJB       0.063200
     37 H5          32.5220    14.1030    26.7880 h1         1 EJB       0.063200
     38 H6          31.0520    12.6890    28.3070 hc         1 EJB       0.050700
     39 H7          31.4930    11.2820    27.3680 hc         1 EJB       0.050700
     40 H8          28.6410    14.0270    25.8210 h1         1 EJB       0.034700
     41 H9          28.7760    13.7230    27.5410 h1         1 EJB       0.034700
     42 H10         26.0420    19.9950    26.7240 hc         1 EJB       0.038367
     43 H11         26.9840    20.3510    25.2780 hc         1 EJB       0.038367
     44 H12         25.6550    19.2020    25.1990 hc         1 EJB       0.038367
     45 H14         36.7130    14.6180    24.3230 ho         1 EJB       0.403000
     46 H15         34.7510    13.6700    25.0960 h1         1 EJB       0.055700
     47 H16         34.8330    11.3800    25.8110 h1         1 EJB       0.057700
     48 H17         35.5090    10.2540    24.0100 ho         1 EJB       0.415000
     49 H18         36.9460    14.3660    26.6500 h1         1 EJB       0.065700
     50 H19         37.8610    11.4660    25.4590 h2         1 EJB       0.120700
     51 H20         35.1870    10.1540    27.8350 h4         1 EJB       0.183000
     52 H21         35.8400     7.6590    28.5590 ha         1 EJB       0.150000
     53 H22         39.0250     5.0610    27.7170 hn         1 EJB       0.442800
     54 H23         37.5620     5.6550    28.4020 hn         1 EJB       0.442800
     55 H24         35.7070    14.0930    28.6740 h1         1 EJB       0.081200
     56 H25         34.7200    14.8300    27.4310 h1         1 EJB       0.081200
     57 H26         29.4960    11.7920    26.3200 hc         1 EJB       0.048200
     58 H27         30.5820    12.7060    25.3020 hc         1 EJB       0.048200
     59 H28         30.6950    15.0770    27.5930 hn         1 EJB       0.359800
     60 H32         26.8860    17.6830    26.7870 hc         1 EJB       0.044200
     61 H33         28.1910    18.8230    26.8820 hc         1 EJB       0.044200
     62 C15         29.3950    16.3100    26.6830 c3         1 EJB       0.213100
     63 H13         40.6990     8.2630    25.1020 h5         1 EJB       0.044100
     64 H30         28.4710    16.2360    27.2780 h1         1 EJB       0.039700
     65 H31         29.9780    17.1090    27.1510 h1         1 EJB       0.039700
@<TRIPOS>BOND
     1     1    30 ar  
     2     1    31 ar  
     3     1    32 1   
     4     2     3 ar  
     5     2    31 ar  
     6     2    33 1   
     7     3     4 ar  
     8     3    34 1   
     9     4    30 ar  
    10     4    35 1   
    11     5     6 1   
    12     5    27 1   
    13     5    36 1   
    14     5    37 1   
    15     6    28 1   
    16     6    38 1   
    17     6    39 1   
    18     7    28 1   
    19     7    29 1   
    20     7    40 1   
    21     7    41 1   
    22     8    32 1   
    23     8    42 1   
    24     8    43 1   
    25     8    44 1   
    26     9    19 ar  
    27     9    20 ar  
    28     9    63 1   
    29    10    11 1   
    30    10    45 1   
    31    11    12 1   
    32    11    14 1   
    33    11    46 1   
    34    12    13 1   
    35    12    16 1   
    36    12    47 1   
    37    13    48 1   
    38    14    15 1   
    39    14    26 1   
    40    14    49 1   
    41    15    16 1   
    42    16    17 1   
    43    16    50 1   
    44    17    18 1   
    45    17    21 1   
    46    18    19 ar  
    47    18    23 ar  
    48    20    24 ar  
    49    21    22 2   
    50    21    51 1   
    51    22    23 1   
    52    22    52 1   
    53    23    24 ar  
    54    24    25 1   
    55    25    53 1   
    56    25    54 1   
    57    26    27 1   
    58    26    55 1   
    59    26    56 1   
    60    28    57 1   
    61    28    58 1   
    62    29    59 1   
    63    29    62 1   
    64    30    62 1   
    65    32    60 1   
    66    32    61 1   
    67    62    64 1   
    68    62    65 1   
@<TRIPOS>SUBSTRUCTURE
     1 EJB         1 TEMP              0 ****  ****    0 ROOT
