@<TRIPOS>MOLECULE
EJB
   65    68     1     0     0
SMALL
No Charge or Current Charge


@<TRIPOS>ATOM
      1 C17         27.7160    17.4780    25.1670 ca         1 EJB       0.356300
      2 C20         26.9730    17.6620    22.9660 ca         1 EJB       0.339900
      3 C21         28.2740    17.5290    22.4620 ca         1 EJB      -0.173000
      4 C22         29.3380    17.3660    23.3590 ca         1 EJB      -0.056000
      5 C11         32.9280    13.6990    26.9310 c3         1 EJB       0.057600
      6 C12         31.6090    12.9000    26.9230 c3         1 EJB      -0.063400
      7 C14         29.9170    14.7110    26.0510 c3         1 EJB       0.156800
      8 C19         25.8270    17.4780    26.9930 c3         1 EJB      -0.075100
      9 C1          39.8780     7.8220    26.7630 ca         1 EJB       0.178900
     10 O1          37.3730    13.5510    24.4940 oh         1 EJB      -0.684000
     11 C8          36.2860    13.2980    25.3970 c5         1 EJB       0.143300
     12 C7          35.8940    11.7930    25.3470 c5         1 EJB       0.134300
     13 O           35.8990    11.2860    23.9970 oh         1 EJB      -0.676000
     14 C9          36.7070    13.4580    26.9020 c5         1 EJB       0.134300
     15 O2          37.1200    12.1410    27.3600 os         1 EJB      -0.443000
     16 C6          37.0220    11.2130    26.2580 c5         1 EJB       0.275300
     17 N3          36.8400     9.8490    26.7730 na         1 EJB      -0.196400
     18 C2          37.8520     8.8930    26.8560 ca         1 EJB       0.160500
     19 N2          39.1680     8.9610    26.5660 nb         1 EJB      -0.228000
     20 N1          39.4030     6.6350    27.2160 nb         1 EJB      -0.303000
     21 C5          35.6030     9.2990    27.1920 cc         1 EJB      -0.166100
     22 C4          35.8930     7.9870    27.5250 cd         1 EJB      -0.213200
     23 C3          37.2950     7.7270    27.3170 ca         1 EJB      -0.260800
     24 C           38.0920     6.5940    27.4940 ca         1 EJB       0.434900
     25 N           37.6060     5.4160    27.9540 nv         1 EJB      -1.079900
     26 C10         35.6170    14.0240    27.8580 c3         1 EJB       0.051600
     27 S           34.1260    12.9370    28.1170 ss         1 EJB      -0.446000
     28 C13         30.5820    13.3310    25.8440 c3         1 EJB      -0.072400
     29 N4          30.8060    15.8150    25.6340 n7         1 EJB      -0.876400
     30 C16         29.0640    17.3400    24.7400 ca         1 EJB      -0.139300
     31 N5          26.6950    17.6400    24.2880 nb         1 EJB      -0.674000
     32 C18         27.3400    17.4610    26.6580 c3         1 EJB      -0.126700
     33 H1          26.1270    17.7920    22.2930 h4         1 EJB       0.018100
     34 H2          28.4480    17.5520    21.3900 ha         1 EJB       0.123000
     35 H3          30.3580    17.2580    22.9930 ha         1 EJB       0.134000
     36 H4          33.3610    13.7000    25.9230 h1         1 EJB       0.063200
     37 H5          32.7440    14.7350    27.2380 h1         1 EJB       0.063200
     38 H6          31.1440    12.9590    27.9150 hc         1 EJB       0.050700
     39 H7          31.8510    11.8430    26.7560 hc         1 EJB       0.050700
     40 H8          28.9970    14.7310    25.4510 h1         1 EJB       0.034700
     41 H9          29.6220    14.8200    27.1040 h1         1 EJB       0.034700
     42 H10         25.6780    17.4430    28.0790 hc         1 EJB       0.038367
     43 H11         25.3510    18.3910    26.6160 hc         1 EJB       0.038367
     44 H12         25.3200    16.6100    26.5540 hc         1 EJB       0.038367
     45 H14         37.2060    12.9340    23.7400 ho         1 EJB       0.502000
     46 H15         35.4330    13.9420    25.1450 h1         1 EJB       0.055700
     47 H16         34.9070    11.6400    25.8010 h1         1 EJB       0.057700
     48 H17         35.6020    10.3460    24.0360 ho         1 EJB       0.514000
     49 H18         37.5740    14.1310    26.9700 h1         1 EJB       0.065700
     50 H19         37.9690    11.2130    25.7020 h2         1 EJB       0.120700
     51 H20         34.6720     9.8590    27.2310 h4         1 EJB       0.233000
     52 H21         35.1610     7.2710    27.8930 ha         1 EJB       0.200000
     53 H22         38.2750     4.7240    28.2810 hn         1 EJB       0.498000
     54 H23         36.6990     5.4190    28.4130 hn         1 EJB       0.498000
     55 H24         36.0860    14.1840    28.8370 h1         1 EJB       0.081200
     56 H25         35.2920    15.0070    27.4930 h1         1 EJB       0.081200
     57 H26         29.7810    12.5810    25.8370 hc         1 EJB       0.048200
     58 H27         31.0440    13.2870    24.8490 hc         1 EJB       0.048200
     59 H28         31.6370    15.7980    26.2330 hn         1 EJB       0.415000
     60 H32         27.7690    16.5680    27.1280 hc         1 EJB       0.044200
     61 H33         27.8030    18.3220    27.1540 hc         1 EJB       0.044200
     62 C15         30.2280    17.1720    25.7140 c3         1 EJB       0.213100
     63 H13         40.9410     7.8650    26.5330 h5         1 EJB       0.044100
     64 H30         29.9230    17.3970    26.7440 h1         1 EJB       0.039700
     65 H31         30.9970    17.9120    25.4520 h1         1 EJB       0.039700
@<TRIPOS>BOND
     1     1    30 ar  
     2     1    31 ar  
     3     1    32 1   
     4     2     3 ar  
     5     2    31 ar  
     6     2    33 1   
     7     3     4 ar  
     8     3    34 1   
     9     4    30 ar  
    10     4    35 1   
    11     5     6 1   
    12     5    27 1   
    13     5    36 1   
    14     5    37 1   
    15     6    28 1   
    16     6    38 1   
    17     6    39 1   
    18     7    28 1   
    19     7    29 1   
    20     7    40 1   
    21     7    41 1   
    22     8    32 1   
    23     8    42 1   
    24     8    43 1   
    25     8    44 1   
    26     9    19 ar  
    27     9    20 ar  
    28     9    63 1   
    29    10    11 1   
    30    10    45 1   
    31    11    12 1   
    32    11    14 1   
    33    11    46 1   
    34    12    13 1   
    35    12    16 1   
    36    12    47 1   
    37    13    48 1   
    38    14    15 1   
    39    14    26 1   
    40    14    49 1   
    41    15    16 1   
    42    16    17 1   
    43    16    50 1   
    44    17    18 1   
    45    17    21 1   
    46    18    19 ar  
    47    18    23 ar  
    48    20    24 ar  
    49    21    22 2   
    50    21    51 1   
    51    22    23 1   
    52    22    52 1   
    53    23    24 ar  
    54    24    25 1   
    55    25    53 1   
    56    25    54 1   
    57    26    27 1   
    58    26    55 1   
    59    26    56 1   
    60    28    57 1   
    61    28    58 1   
    62    29    59 1   
    63    29    62 1   
    64    30    62 1   
    65    32    60 1   
    66    32    61 1   
    67    62    64 1   
    68    62    65 1   
@<TRIPOS>SUBSTRUCTURE
     1 EJB         1 TEMP              0 ****  ****    0 ROOT
