@<TRIPOS>MOLECULE
EJC
   26    27     1     0     0
SMALL
No Charge or Current Charge


@<TRIPOS>ATOM
      1 C10          2.4100    27.3650    22.0270 ca         1 EJC      -0.158000
      2 C01          5.2570    23.2860    24.1310 c3         1 EJC      -0.090100
      3 C02          4.2550    24.3360    24.6500 c3         1 EJC      -0.081400
      4 C03          3.7500    25.2840    23.5440 c3         1 EJC       0.164600
      5 C05          2.1970    27.1950    23.4190 ca         1 EJC       0.118100
      6 C06          1.3090    28.0570    24.1050 ca         1 EJC      -0.119000
      7 C07          0.6280    29.0870    23.4200 ca         1 EJC      -0.092000
      8 C08          0.8600    29.2290    22.0460 ca         1 EJC      -0.084200
      9 C09          1.7180    28.3970    21.3830 ca         1 EJC      -0.062800
     10 C11          1.7270    28.8050    20.0140 cc         1 EJC      -0.252200
     11 C12          0.8600    29.8860    19.9030 cd         1 EJC      -0.159100
     12 N13          0.3080    30.1600    21.1800 na         1 EJC      -0.221700
     13 O04          2.8300    26.2090    24.1480 os         1 EJC      -0.354100
     14 H1           3.0820    26.7280    21.4590 ha         1 EJC       0.119000
     15 H2           5.5880    22.6360    24.9500 hc         1 EJC       0.034700
     16 H3           4.7970    22.6580    23.3590 hc         1 EJC       0.034700
     17 H4           6.1410    23.7730    23.7010 hc         1 EJC       0.034700
     18 H5           4.7320    24.9270    25.4410 hc         1 EJC       0.053200
     19 H6           3.3990    23.8210    25.1020 hc         1 EJC       0.053200
     20 H7           3.2530    24.6990    22.7590 h1         1 EJC       0.031700
     21 H8           4.6020    25.8170    23.1020 h1         1 EJC       0.031700
     22 H9           1.1490    27.9220    25.1710 ha         1 EJC       0.124000
     23 H10         -0.0550    29.7500    23.9460 ha         1 EJC       0.114000
     24 H11          2.3000    28.3650    19.2000 ha         1 EJC       0.203000
     25 H12          0.5970    30.4720    19.0240 h4         1 EJC       0.209000
     26 H13         -0.3580    30.8920    21.4130 hn         1 EJC       0.347000
@<TRIPOS>BOND
     1     1     5 ar  
     2     1     9 ar  
     3     1    14 1   
     4     2     3 1   
     5     2    15 1   
     6     2    16 1   
     7     2    17 1   
     8     3     4 1   
     9     3    18 1   
    10     3    19 1   
    11     4    13 1   
    12     4    20 1   
    13     4    21 1   
    14     5     6 ar  
    15     5    13 1   
    16     6     7 ar  
    17     6    22 1   
    18     7     8 ar  
    19     7    23 1   
    20     8     9 ar  
    21     8    12 1   
    22     9    10 1   
    23    10    11 2   
    24    10    24 1   
    25    11    12 1   
    26    11    25 1   
    27    12    26 1   
@<TRIPOS>SUBSTRUCTURE
     1 EJC         1 TEMP              0 ****  ****    0 ROOT
