@<TRIPOS>MOLECULE
EJC
   26    27     1     0     0
SMALL
bcc


@<TRIPOS>ATOM
      1 C10          2.4360    27.3190    22.0590 ca         1 EJC      -0.176000
      2 C01          5.2000    23.3740    24.0640 c3         1 EJC      -0.090100
      3 C02          4.2270    24.3840    24.6550 c3         1 EJC      -0.081400
      4 C03          3.6990    25.3210    23.5880 c3         1 EJC       0.141400
      5 C05          2.2080    27.1720    23.4150 ca         1 EJC       0.118100
      6 C06          1.3180    28.0310    24.0950 ca         1 EJC      -0.137000
      7 C07          0.6500    29.0400    23.4370 ca         1 EJC      -0.110000
      8 C08          0.8800    29.1920    22.0700 ca         1 EJC      -0.084200
      9 C09          1.7640    28.3440    21.3740 ca         1 EJC      -0.062800
     10 C11          1.7620    28.7770    20.0130 cc         1 EJC      -0.202200
     11 C12          0.9030    29.8390    19.9400 cd         1 EJC      -0.109100
     12 N13          0.3730    30.0890    21.1700 na         1 EJC      -0.171400
     13 O04          2.7930    26.2270    24.1900 os         1 EJC      -0.330900
     14 H1           3.1130    26.6720    21.5170 ha         1 EJC       0.137000
     15 H2           5.6010    22.7190    24.8370 hc         1 EJC       0.034700
     16 H3           4.7150    22.7430    23.3160 hc         1 EJC       0.034700
     17 H4           6.0440    23.8700    23.5810 hc         1 EJC       0.034700
     18 H5           4.7250    24.9670    25.4350 hc         1 EJC       0.053200
     19 H6           3.3930    23.8620    25.1300 hc         1 EJC       0.053200
     20 H7           3.1980    24.7490    22.7970 h1         1 EJC       0.031700
     21 H8           4.5300    25.8630    23.1210 h1         1 EJC       0.031700
     22 H9           1.1630    27.8850    25.1570 ha         1 EJC       0.142000
     23 H10         -0.0290    29.6890    23.9740 ha         1 EJC       0.132000
     24 H11          2.3250    28.3580    19.1950 ha         1 EJC       0.153000
     25 H12          0.6270    30.4450    19.0920 h4         1 EJC       0.159000
     26 H13         -0.2810    30.8250    21.3760 hn         1 EJC       0.296700
@<TRIPOS>BOND
     1     1     5 ar  
     2     1     9 ar  
     3     1    14 1   
     4     2     3 1   
     5     2    15 1   
     6     2    16 1   
     7     2    17 1   
     8     3     4 1   
     9     3    18 1   
    10     3    19 1   
    11     4    13 1   
    12     4    20 1   
    13     4    21 1   
    14     5     6 ar  
    15     5    13 1   
    16     6     7 ar  
    17     6    22 1   
    18     7     8 ar  
    19     7    23 1   
    20     8     9 ar  
    21     8    12 1   
    22     9    10 1   
    23    10    11 2   
    24    10    24 1   
    25    11    12 1   
    26    11    25 1   
    27    12    26 1   
@<TRIPOS>SUBSTRUCTURE
     1 EJC         1 TEMP              0 ****  ****    0 ROOT
