@<TRIPOS>MOLECULE
EJD
   21    22     1     0     0
SMALL
bcc


@<TRIPOS>ATOM
      1 C10         -1.8040    -0.1100    -0.0100 cc         1 EJD      -0.007000
      2 C13         -3.9170    -1.0950    -0.0270 cd         1 EJD      -0.130100
      3 C04          2.4950     0.0270    -0.0010 ca         1 EJD      -0.117600
      4 C05          1.7380     1.1960    -0.0090 ca         1 EJD      -0.113000
      5 C06          0.3540     1.1540    -0.0100 ca         1 EJD      -0.140500
      6 C07         -0.3330    -0.0630    -0.0040 ca         1 EJD      -0.065000
      7 C08          0.4290    -1.2340     0.0060 ca         1 EJD      -0.140500
      8 C09          1.8140    -1.1860     0.0070 ca         1 EJD      -0.113000
      9 C11         -2.6190     0.9920    -0.0040 cd         1 EJD      -0.127100
     10 C14         -2.5770    -1.3160    -0.0230 cc         1 EJD      -0.134000
     11 O01          4.5380     1.2070    -0.0090 o          1 EJD      -0.823800
     12 O03          4.6100    -1.0200     0.0010 o          1 EJD      -0.823800
     13 S12         -4.2770     0.5790    -0.0150 ss         1 EJD      -0.154800
     14 H1          -4.7080    -1.8280    -0.0380 h4         1 EJD       0.154000
     15 H2           2.2400     2.1550    -0.0150 ha         1 EJD       0.145500
     16 H3          -0.1950     2.0870    -0.0180 ha         1 EJD       0.103000
     17 H4          -0.0550    -2.2020     0.0130 ha         1 EJD       0.103000
     18 H5           2.3770    -2.1110     0.0140 ha         1 EJD       0.145500
     19 H6          -2.3360     2.0340     0.0050 h4         1 EJD       0.166000
     20 H7          -2.1600    -2.3120    -0.0310 ha         1 EJD       0.150000
     21 C02          4.0170     0.0760    -0.0030 c          1 EJD       0.922200
@<TRIPOS>BOND
     1     1     6 1   
     2     1     9 2   
     3     1    10 1   
     4     2    10 2   
     5     2    13 1   
     6     2    14 1   
     7     3     4 ar  
     8     3     8 ar  
     9     3    21 1   
    10     4     5 ar  
    11     4    15 1   
    12     5     6 ar  
    13     5    16 1   
    14     6     7 ar  
    15     7     8 ar  
    16     7    17 1   
    17     8    18 1   
    18     9    13 1   
    19     9    19 1   
    20    10    20 1   
    21    11    21 1   
    22    12    21 1   
@<TRIPOS>SUBSTRUCTURE
     1 EJD         1 TEMP              0 ****  ****    0 ROOT
