@<TRIPOS>MOLECULE
EJD
   21    22     1     0     0
SMALL
No Charge or Current Charge


@<TRIPOS>ATOM
      1 C10         -1.8240    -0.1550    -0.0130 cc         1 EJD      -0.007000
      2 C13         -3.9720    -1.1060    -0.0180 cd         1 EJD      -0.257000
      3 C04          2.5190     0.0350    -0.0010 ca         1 EJD      -0.117600
      4 C05          1.7480     1.2180    -0.0040 ca         1 EJD      -0.095000
      5 C06          0.3430     1.1660    -0.0080 ca         1 EJD      -0.122500
      6 C07         -0.3460    -0.0710    -0.0090 ca         1 EJD      -0.065000
      7 C08          0.4320    -1.2510    -0.0060 ca         1 EJD      -0.122500
      8 C09          1.8370    -1.2010    -0.0020 ca         1 EJD      -0.095000
      9 C11         -2.5910     0.9900    -0.0160 cd         1 EJD      -0.254000
     10 C14         -2.6210    -1.3350    -0.0140 cc         1 EJD      -0.116000
     11 O01          4.5870     1.1850     0.0030 o          1 EJD      -0.718500
     12 O03          4.6660    -0.9610     0.0060 o          1 EJD      -0.718500
     13 S12         -4.3250     0.6250    -0.0210 ss         1 EJD       0.135000
     14 H1          -4.7770    -1.8310    -0.0200 h4         1 EJD       0.136000
     15 H2           2.2370     2.1890    -0.0040 ha         1 EJD       0.127500
     16 H3          -0.1920     2.1090    -0.0110 ha         1 EJD       0.085000
     17 H4          -0.0400    -2.2270    -0.0060 ha         1 EJD       0.085000
     18 H5           2.3950    -2.1340     0.0000 ha         1 EJD       0.127500
     19 H6          -2.2830     2.0260    -0.0160 h4         1 EJD       0.148000
     20 H7          -2.1990    -2.3330    -0.0120 ha         1 EJD       0.132000
     21 C02          4.0400     0.0910     0.0030 c          1 EJD       0.711600
@<TRIPOS>BOND
     1     1     6 1   
     2     1     9 2   
     3     1    10 1   
     4     2    10 2   
     5     2    13 1   
     6     2    14 1   
     7     3     4 ar  
     8     3     8 ar  
     9     3    21 1   
    10     4     5 ar  
    11     4    15 1   
    12     5     6 ar  
    13     5    16 1   
    14     6     7 ar  
    15     7     8 ar  
    16     7    17 1   
    17     8    18 1   
    18     9    13 1   
    19     9    19 1   
    20    10    20 1   
    21    11    21 1   
    22    12    21 1   
@<TRIPOS>SUBSTRUCTURE
     1 EJD         1 TEMP              0 ****  ****    0 ROOT
