@<TRIPOS>MOLECULE
EJE
   48    51     1     0     0
SMALL
bcc


@<TRIPOS>ATOM
      1 C4          -3.9190    -1.3060    -0.1730 ca         1 EJE      -0.077300
      2 C5          -3.9430    -0.2300     0.7090 ca         1 EJE      -0.124500
      3 C6          -2.9820     0.7720     0.6540 ca         1 EJE      -0.051800
      4 C7          -4.9860    -2.3710    -0.1220 c3         1 EJE       0.196100
      5 C8          -0.9250     1.7400    -0.3550 cc         1 EJE       0.391800
      6 C10          0.3830     1.6290     0.0500 cd         1 EJE      -0.187600
      7 C17          1.3080    -1.1260     2.4090 ca         1 EJE       0.426200
      8 C20          2.8300    -1.1980     0.7150 ca         1 EJE       0.417600
      9 C21          2.2080    -0.1180     0.0360 ca         1 EJE      -0.155300
     10 C22          2.7020     0.2650    -1.2310 ca         1 EJE      -0.090000
     11 C24          4.4090    -1.3920    -1.0690 ca         1 EJE       0.141900
     12 C1          -1.9620     0.6920    -0.3060 ca         1 EJE      -0.112500
     13 C12         -0.0160     3.6330    -0.7150 cd         1 EJE       0.396400
     14 C14          1.0800     0.4930     0.6520 ca         1 EJE       0.049000
     15 C16          0.6260    -0.0390     1.8320 ca         1 EJE      -0.227300
     16 C18         -3.0260     1.9110     1.6320 c3         1 EJE      -0.047300
     17 C2          -1.9230    -0.3800    -1.2020 ca         1 EJE      -0.051800
     18 C23          3.7870    -0.3570    -1.7830 ca         1 EJE      -0.166000
     19 C25          3.9610    -1.8230     0.1420 ca         1 EJE      -0.213300
     20 C27         -0.8480    -0.4950    -2.2440 c3         1 EJE      -0.047300
     21 C3          -2.9050    -1.3660    -1.1170 ca         1 EJE      -0.124500
     22 N11         -1.1530     2.9960    -0.8380 nc         1 EJE      -0.659000
     23 N15          2.3740    -1.6780     1.8950 nb         1 EJE      -0.659000
     24 N19         -5.2720    -2.7810     1.2430 n8         1 EJE      -0.886800
     25 N9           0.9510     2.8560    -0.1890 na         1 EJE      -0.176900
     26 H1          -4.7210    -0.1800     1.4610 ha         1 EJE       0.136000
     27 H2          -5.9080    -1.9640    -0.5470 h1         1 EJE       0.034700
     28 H3          -4.6890    -3.1960    -0.7830 h1         1 EJE       0.034700
     29 H4           3.0440     2.7980    -0.4180 h1         1 EJE       0.057367
     30 H5           2.3550     4.3640     0.0090 h1         1 EJE       0.057367
     31 H6           2.4680     3.0920     1.2300 h1         1 EJE       0.057367
     32 H7           0.9520    -1.5340     3.3490 h4         1 EJE       0.024100
     33 H8           2.2020     1.0420    -1.7940 ha         1 EJE       0.144000
     34 H9           0.1650     4.6630    -0.9850 h5         1 EJE       0.057100
     35 H10         -0.2340     0.3790     2.3360 ha         1 EJE       0.155000
     36 H11         -2.1180     1.9540     2.2380 hc         1 EJE       0.043200
     37 H12         -3.1080     2.8730     1.1260 hc         1 EJE       0.043200
     38 H13         -3.8730     1.8130     2.3100 hc         1 EJE       0.043200
     39 H14          4.1600    -0.0710    -2.7570 ha         1 EJE       0.152000
     40 H15          4.4430    -2.6370     0.6680 ha         1 EJE       0.169000
     41 H16          0.1000    -0.8200    -1.8090 hc         1 EJE       0.043200
     42 H17         -1.1180    -1.2250    -3.0060 hc         1 EJE       0.043200
     43 H18         -0.6590     0.4560    -2.7420 hc         1 EJE       0.043200
     44 H19         -2.8740    -2.2000    -1.8100 ha         1 EJE       0.136000
     45 H20         -6.0540    -3.4240     1.2410 hn         1 EJE       0.339800
     46 H21         -4.4840    -3.3000     1.6100 hn         1 EJE       0.339800
     47 C13          2.2810     3.2940     0.1780 c3         1 EJE       0.026600
     48 F26          5.4750    -1.9810    -1.6270 f          1 EJE      -0.138900
@<TRIPOS>BOND
     1     1     2 ar  
     2     1     4 1   
     3     1    21 ar  
     4     2     3 ar  
     5     2    26 1   
     6     3    12 ar  
     7     3    16 1   
     8     4    24 1   
     9     4    27 1   
    10     4    28 1   
    11     5     6 2   
    12     5    12 1   
    13     5    22 1   
    14     6    14 1   
    15     6    25 1   
    16     7    15 ar  
    17     7    23 ar  
    18     7    32 1   
    19     8     9 ar  
    20     8    19 ar  
    21     8    23 ar  
    22     9    10 ar  
    23     9    14 ar  
    24    10    18 ar  
    25    10    33 1   
    26    11    18 ar  
    27    11    19 ar  
    28    11    48 1   
    29    12    17 ar  
    30    13    22 2   
    31    13    25 1   
    32    13    34 1   
    33    14    15 ar  
    34    15    35 1   
    35    16    36 1   
    36    16    37 1   
    37    16    38 1   
    38    17    20 1   
    39    17    21 ar  
    40    18    39 1   
    41    19    40 1   
    42    20    41 1   
    43    20    42 1   
    44    20    43 1   
    45    21    44 1   
    46    24    45 1   
    47    24    46 1   
    48    25    47 1   
    49    29    47 1   
    50    30    47 1   
    51    31    47 1   
@<TRIPOS>SUBSTRUCTURE
     1 EJE         1 TEMP              0 ****  ****    0 ROOT
