@<TRIPOS>MOLECULE
EJE
   48    51     1     0     0
SMALL
No Charge or Current Charge


@<TRIPOS>ATOM
      1 C4          -4.0050    -1.1890     0.0160 ca         1 EJE      -0.077300
      2 C5          -3.9970    -0.0540     0.8430 ca         1 EJE      -0.106500
      3 C6          -3.0100     0.9400     0.6970 ca         1 EJE      -0.051800
      4 C7          -5.0820    -2.2540     0.1810 c3         1 EJE       0.196100
      5 C8          -0.9670     1.8220    -0.4470 cc         1 EJE       0.326500
      6 C10          0.3650     1.5610    -0.2200 cd         1 EJE      -0.173000
      7 C17          0.9210    -1.3300     2.1510 ca         1 EJE       0.360900
      8 C20          2.7730    -1.2610     0.7550 ca         1 EJE       0.287000
      9 C21          2.2270    -0.1700     0.0210 ca         1 EJE      -0.090000
     10 C22          2.9070     0.2990    -1.1280 ca         1 EJE      -0.072000
     11 C24          4.6970    -1.2910    -0.7420 ca         1 EJE       0.177000
     12 C1          -2.0090     0.7980    -0.2990 ca         1 EJE      -0.112500
     13 C12         -0.0230     3.6800    -0.8710 cd         1 EJE       0.396400
     14 C14          0.9780     0.3730     0.4220 ca         1 EJE       0.049000
     15 C16          0.3170    -0.2550     1.4930 ca         1 EJE      -0.144000
     16 C18         -3.0300     2.1420     1.6370 c3         1 EJE      -0.047300
     17 C2          -2.0220    -0.3430    -1.1420 ca         1 EJE      -0.051800
     18 C23          4.1420    -0.2540    -1.5000 ca         1 EJE      -0.148000
     19 C25          4.0140    -1.7960     0.3690 ca         1 EJE      -0.130000
     20 C27         -0.9890    -0.5340    -2.2510 c3         1 EJE      -0.047300
     21 C3          -3.0160    -1.3260    -0.9730 ca         1 EJE      -0.106500
     22 N11         -1.2080     3.0900    -0.8830 nc         1 EJE      -0.659000
     23 N15          2.1300    -1.8180     1.8040 nb         1 EJE      -0.659000
     24 N19         -4.7150    -3.2430     1.2120 n8         1 EJE      -0.997200
     25 N9           0.9610     2.8080    -0.4150 na         1 EJE      -0.155500
     26 H1          -4.7620     0.0510     1.6090 ha         1 EJE       0.118000
     27 H2          -6.0320    -1.7810     0.4660 h1         1 EJE       0.034700
     28 H3          -5.2360    -2.7780    -0.7730 h1         1 EJE       0.034700
     29 H4           2.9660     3.2290    -0.9380 h1         1 EJE       0.057367
     30 H5           2.3070     4.2210     0.3920 h1         1 EJE       0.057367
     31 H6           2.7460     2.5200     0.6920 h1         1 EJE       0.057367
     32 H7           0.4300    -1.8070     2.9990 h4         1 EJE       0.024100
     33 H8           2.4780     1.0720    -1.7580 ha         1 EJE       0.126000
     34 H9           0.1900     4.7140    -1.1160 h5         1 EJE       0.057100
     35 H10         -0.6360     0.1090     1.8590 ha         1 EJE       0.137000
     36 H11         -2.0370     2.3370     2.0600 hc         1 EJE       0.043200
     37 H12         -3.3560     3.0460     1.1110 hc         1 EJE       0.043200
     38 H13         -3.7140     1.9880     2.4800 hc         1 EJE       0.043200
     39 H14          4.6640     0.1130    -2.3800 ha         1 EJE       0.134000
     40 H15          4.4430    -2.6200     0.9310 ha         1 EJE       0.151000
     41 H16         -0.0630    -0.9680    -1.8570 hc         1 EJE       0.043200
     42 H17         -1.3600    -1.2090    -3.0320 hc         1 EJE       0.043200
     43 H18         -0.7380     0.4130    -2.7430 hc         1 EJE       0.043200
     44 H19         -3.0230    -2.2010    -1.6180 ha         1 EJE       0.118000
     45 H20         -5.4210    -3.9890     1.2230 hn         1 EJE       0.395000
     46 H21         -3.8570    -3.7220     0.9150 hn         1 EJE       0.395000
     47 C13          2.3290     3.2150    -0.0460 c3         1 EJE       0.055900
     48 F26          5.8840    -1.8250    -1.1020 f          1 EJE      -0.174000
@<TRIPOS>BOND
     1     1     2 ar  
     2     1     4 1   
     3     1    21 ar  
     4     2     3 ar  
     5     2    26 1   
     6     3    12 ar  
     7     3    16 1   
     8     4    24 1   
     9     4    27 1   
    10     4    28 1   
    11     5     6 2   
    12     5    12 1   
    13     5    22 1   
    14     6    14 1   
    15     6    25 1   
    16     7    15 ar  
    17     7    23 ar  
    18     7    32 1   
    19     8     9 ar  
    20     8    19 ar  
    21     8    23 ar  
    22     9    10 ar  
    23     9    14 ar  
    24    10    18 ar  
    25    10    33 1   
    26    11    18 ar  
    27    11    19 ar  
    28    11    48 1   
    29    12    17 ar  
    30    13    22 2   
    31    13    25 1   
    32    13    34 1   
    33    14    15 ar  
    34    15    35 1   
    35    16    36 1   
    36    16    37 1   
    37    16    38 1   
    38    17    20 1   
    39    17    21 ar  
    40    18    39 1   
    41    19    40 1   
    42    20    41 1   
    43    20    42 1   
    44    20    43 1   
    45    21    44 1   
    46    24    45 1   
    47    24    46 1   
    48    25    47 1   
    49    29    47 1   
    50    30    47 1   
    51    31    47 1   
@<TRIPOS>SUBSTRUCTURE
     1 EJE         1 TEMP              0 ****  ****    0 ROOT
