@<TRIPOS>MOLECULE
EJF
   74    76     1     0     0
SMALL
No Charge or Current Charge


@<TRIPOS>ATOM
      1 C10        -25.8430   -12.0290     5.6070 cc         1 EJF      -0.205200
      2 C13        -29.5850   -11.7920     6.1510 ca         1 EJF      -0.141000
      3 C15        -28.4230    -9.6400     6.3340 ca         1 EJF      -0.126000
      4 C26        -25.3660   -15.5520     7.0900 c3         1 EJF      -0.091600
      5 C28        -22.6590   -19.2820     1.8840 c3         1 EJF      -0.020300
      6 C02        -23.8040   -17.2790     2.9470 c          1 EJF       0.590100
      7 C03        -24.0420   -16.5530     4.3020 c3         1 EJF       0.038700
      8 C05        -23.1050   -14.2010     4.4890 c          1 EJF       0.590100
      9 C06        -23.2710   -12.7410     3.9660 c3         1 EJF       0.047700
     10 C09        -25.0750   -10.8610     5.6650 cd         1 EJF      -0.138300
     11 C11        -27.2020   -11.6600     5.8450 ca         1 EJF      -0.114800
     12 C12        -28.3630   -12.4440     5.8820 ca         1 EJF      -0.057000
     13 C14        -29.6160   -10.3950     6.3760 ca         1 EJF      -0.083000
     14 C16        -27.2240   -10.3140     6.0630 ca         1 EJF      -0.036200
     15 C19        -22.4470   -12.4820     2.6630 c3         1 EJF      -0.075700
     16 C23        -25.3530   -17.0530     4.9740 c3         1 EJF      -0.083400
     17 C25        -26.6100   -17.7620     7.0800 c3         1 EJF      -0.091600
     18 C29        -23.1440   -20.7490     2.0180 c          1 EJF       0.561900
     19 C31        -21.1170   -19.1570     1.7390 c3         1 EJF      -0.064400
     20 C32        -20.5880   -17.7150     1.4920 c5         1 EJF      -0.160700
     21 C33        -21.0340   -17.0620     0.1530 c5         1 EJF      -0.089400
     22 C34        -19.9690   -15.9440    -0.0110 c5         1 EJF       0.101000
     23 C36        -19.0580   -17.6220     1.4130 c          1 EJF       0.565000
     24 N04        -24.0710   -15.0910     4.0610 ns         1 EJF      -0.485900
     25 N07        -22.8480   -11.7830     5.0200 ns         1 EJF      -0.485900
     26 N17        -25.9470    -9.7830     5.9820 na         1 EJF      -0.187700
     27 N35        -18.7880   -16.6200     0.5210 ns         1 EJF      -0.513900
     28 O01        -24.1580   -16.8160     1.8710 o          1 EJF      -0.606100
     29 O18        -22.9930    -9.7310     5.9060 o          1 EJF      -0.605100
     30 O30        -22.4240   -21.6890     2.3400 o          1 EJF      -0.497100
     31 O37        -18.2070   -18.3890     1.8330 o          1 EJF      -0.557000
     32 H1         -25.4750   -13.0410     5.4900 ha         1 EJF       0.204000
     33 H2         -30.5080   -12.3670     6.1860 ha         1 EJF       0.112000
     34 H3         -28.4370    -8.5660     6.5080 ha         1 EJF       0.118000
     35 H4         -22.3440   -10.2900     2.8380 hc         1 EJF       0.043700
     36 H5         -22.0780   -10.8920     1.1990 hc         1 EJF       0.043700
     37 H6         -23.7190   -10.8760     1.8780 hc         1 EJF       0.043700
     38 H7         -22.4070   -14.5280     1.8590 hc         1 EJF       0.043700
     39 H8         -23.7900   -13.5570     1.2980 hc         1 EJF       0.043700
     40 H9         -22.1660   -13.2770     0.6390 hc         1 EJF       0.043700
     41 H10        -24.4920   -17.5030     6.9020 hc         1 EJF       0.047700
     42 H11        -25.4270   -15.5640     8.1850 hc         1 EJF       0.037367
     43 H12        -24.4390   -15.0350     6.8220 hc         1 EJF       0.037367
     44 H13        -26.2160   -14.9740     6.7090 hc         1 EJF       0.037367
     45 H14        -23.1270   -18.9050     0.9650 h1         1 EJF       0.100700
     46 H15        -23.1920   -16.8070     4.9480 h1         1 EJF       0.077700
     47 H16        -24.3230   -12.5830     3.7080 h1         1 EJF       0.079700
     48 H17        -28.3230   -13.5170     5.7090 ha         1 EJF       0.112000
     49 H18        -30.5620    -9.9000     6.5830 ha         1 EJF       0.113000
     50 H19        -21.3830   -12.5730     2.9210 hc         1 EJF       0.062700
     51 H20        -26.2130   -16.5160     4.5560 hc         1 EJF       0.056700
     52 H21        -25.4930   -18.1040     4.6900 hc         1 EJF       0.056700
     53 H22        -26.6060   -17.7630     8.1770 hc         1 EJF       0.037367
     54 H23        -27.5470   -17.3040     6.7410 hc         1 EJF       0.037367
     55 H24        -26.5970   -18.8060     6.7450 hc         1 EJF       0.037367
     56 H25        -24.2230   -20.9080     1.7970 h4         1 EJF      -0.005800
     57 H26        -20.7880   -19.8070     0.9170 hc         1 EJF       0.071200
     58 H27        -20.6490   -19.5610     2.6470 hc         1 EJF       0.071200
     59 H28        -20.8970   -17.0590     2.3130 hc         1 EJF       0.092700
     60 H29        -22.0550   -16.6680     0.1770 hc         1 EJF       0.060700
     61 H30        -20.9760   -17.7760    -0.6770 hc         1 EJF       0.060700
     62 H31        -19.8500   -15.6390    -1.0600 h1         1 EJF       0.044700
     63 H32        -20.2200   -15.0560     0.5830 h1         1 EJF       0.044700
     64 H33        -24.7690   -14.7340     3.4180 hn         1 EJF       0.327500
     65 H34        -21.8490   -11.6690     5.1370 hn         1 EJF       0.328500
     66 H35        -25.6780    -8.8150     6.1310 hn         1 EJF       0.368000
     67 H36        -22.8990   -18.8000     3.9750 hn         1 EJF       0.321500
     68 H37        -17.8270   -16.4460     0.2530 hn         1 EJF       0.326500
     69 C08        -23.5820   -10.7370     5.5430 c          1 EJF       0.636300
     70 O22        -22.1870   -14.5460     5.2230 o          1 EJF      -0.602100
     71 C20        -22.6620   -11.0480     2.1140 c3         1 EJF      -0.098100
     72 C21        -22.7240   -13.5250     1.5510 c3         1 EJF      -0.098100
     73 N27        -23.1460   -18.4900     3.0400 ns         1 EJF      -0.494900
     74 C24        -25.3880   -16.9920     6.5280 c3         1 EJF      -0.061700
@<TRIPOS>BOND
     1     1    10 2   
     2     1    11 1   
     3     1    32 1   
     4     2    12 ar  
     5     2    13 ar  
     6     2    33 1   
     7     3    13 ar  
     8     3    14 ar  
     9     3    34 1   
    10     4    42 1   
    11     4    43 1   
    12     4    44 1   
    13     4    74 1   
    14     5    18 1   
    15     5    19 1   
    16     5    45 1   
    17     5    73 1   
    18     6     7 1   
    19     6    28 2   
    20     6    73 1   
    21     7    16 1   
    22     7    24 1   
    23     7    46 1   
    24     8     9 1   
    25     8    24 1   
    26     8    70 2   
    27     9    15 1   
    28     9    25 1   
    29     9    47 1   
    30    10    26 1   
    31    10    69 1   
    32    11    12 ar  
    33    11    14 ar  
    34    12    48 1   
    35    13    49 1   
    36    14    26 1   
    37    15    50 1   
    38    15    71 1   
    39    15    72 1   
    40    16    51 1   
    41    16    52 1   
    42    16    74 1   
    43    17    53 1   
    44    17    54 1   
    45    17    55 1   
    46    17    74 1   
    47    18    30 2   
    48    18    56 1   
    49    19    20 1   
    50    19    57 1   
    51    19    58 1   
    52    20    21 1   
    53    20    23 1   
    54    20    59 1   
    55    21    22 1   
    56    21    60 1   
    57    21    61 1   
    58    22    27 1   
    59    22    62 1   
    60    22    63 1   
    61    23    27 1   
    62    23    31 2   
    63    24    64 1   
    64    25    65 1   
    65    25    69 1   
    66    26    66 1   
    67    27    68 1   
    68    29    69 2   
    69    35    71 1   
    70    36    71 1   
    71    37    71 1   
    72    38    72 1   
    73    39    72 1   
    74    40    72 1   
    75    41    74 1   
    76    67    73 1   
@<TRIPOS>SUBSTRUCTURE
     1 EJF         1 TEMP              0 ****  ****    0 ROOT
