@<TRIPOS>MOLECULE
EJF
   74    76     1     0     0
SMALL
abcg2


@<TRIPOS>ATOM
      1 C10        -25.4310   -12.2220     5.7610 cc         1 EJF      -0.205200
      2 C13        -28.5520   -11.2430     7.6580 ca         1 EJF      -0.141000
      3 C15        -27.1050    -9.3490     7.1750 ca         1 EJF      -0.126000
      4 C26        -26.3800   -15.8440     6.2740 c3         1 EJF      -0.091600
      5 C28        -21.9910   -19.0850     2.2840 c3         1 EJF      -0.020300
      6 C02        -23.6760   -17.3950     2.8870 c          1 EJF       0.590100
      7 C03        -24.3470   -16.6890     4.0650 c3         1 EJF       0.038700
      8 C05        -23.4510   -14.4880     3.5630 c          1 EJF       0.590100
      9 C06        -23.7390   -13.0360     3.1800 c3         1 EJF       0.047700
     10 C09        -24.5540   -11.2140     5.4520 cd         1 EJF      -0.138300
     11 C11        -26.5150   -11.6280     6.4660 ca         1 EJF      -0.114800
     12 C12        -27.6950   -12.1250     7.0370 ca         1 EJF      -0.057000
     13 C14        -28.2580    -9.8670     7.7240 ca         1 EJF      -0.083000
     14 C16        -26.2350   -10.2450     6.5490 ca         1 EJF      -0.036200
     15 C19        -23.4840   -12.8040     1.6770 c3         1 EJF      -0.075700
     16 C23        -25.6950   -17.3710     4.3380 c3         1 EJF      -0.083400
     17 C25        -27.5130   -18.0470     5.9030 c3         1 EJF      -0.091600
     18 C29        -22.3780   -20.5450     2.3870 c          1 EJF       0.561900
     19 C31        -20.4930   -18.8400     2.4360 c3         1 EJF      -0.064400
     20 C32        -20.1380   -17.3660     2.3630 c5         1 EJF      -0.160700
     21 C33        -20.4810   -16.6510     1.0560 c5         1 EJF      -0.089400
     22 C34        -19.4470   -15.5280     0.9820 c5         1 EJF       0.101000
     23 C36        -18.6460   -17.1140     2.5150 c          1 EJF       0.565000
     24 N04        -24.5150   -15.2840     3.7670 ns         1 EJF      -0.485900
     25 N07        -22.8800   -12.1830     3.9730 ns         1 EJF      -0.485900
     26 N17        -25.0410   -10.0310     5.9390 na         1 EJF      -0.187700
     27 N35        -18.3250   -16.0970     1.6990 ns         1 EJF      -0.513900
     28 O01        -23.9990   -17.1610     1.7360 o          1 EJF      -0.606100
     29 O18        -22.3930   -10.3690     5.2080 o          1 EJF      -0.605100
     30 O30        -21.6030   -21.4630     2.3340 o          1 EJF      -0.497100
     31 O37        -17.8830   -17.7150     3.2540 o          1 EJF      -0.557000
     32 H1         -25.3000   -13.2710     5.5530 ha         1 EJF       0.204000
     33 H2         -29.4690   -11.6080     8.1020 ha         1 EJF       0.112000
     34 H3         -26.8800    -8.2920     7.2310 ha         1 EJF       0.118000
     35 H4         -23.0340   -10.6680     1.8450 hc         1 EJF       0.043700
     36 H5         -23.5410   -11.1900     0.2480 hc         1 EJF       0.043700
     37 H6         -24.7330   -11.0340     1.5360 hc         1 EJF       0.043700
     38 H7         -24.2000   -14.7610     1.0010 hc         1 EJF       0.043700
     39 H8         -25.4330   -13.4990     1.0150 hc         1 EJF       0.043700
     40 H9         -24.1920   -13.5130    -0.2340 hc         1 EJF       0.043700
     41 H10        -25.4600   -17.7620     6.4180 hc         1 EJF       0.047700
     42 H11        -26.8200   -15.8400     7.2720 hc         1 EJF       0.037367
     43 H12        -25.4310   -15.3110     6.3400 hc         1 EJF       0.037367
     44 H13        -27.0460   -15.2770     5.6180 hc         1 EJF       0.037367
     45 H14        -22.3200   -18.7680     1.2870 h1         1 EJF       0.100700
     46 H15        -23.7140   -16.7790     4.9540 h1         1 EJF       0.077700
     47 H16        -24.7790   -12.7770     3.3860 h1         1 EJF       0.079700
     48 H17        -27.9300   -13.1810     6.9890 ha         1 EJF       0.112000
     49 H18        -28.9540    -9.2030     8.2200 ha         1 EJF       0.113000
     50 H19        -22.4380   -13.0630     1.4740 hc         1 EJF       0.062700
     51 H20        -26.4460   -16.9820     3.6400 hc         1 EJF       0.056700
     52 H21        -25.5930   -18.4330     4.1000 hc         1 EJF       0.056700
     53 H22        -27.8590   -18.0630     6.9380 hc         1 EJF       0.037367
     54 H23        -28.2990   -17.5870     5.3000 hc         1 EJF       0.037367
     55 H24        -27.4020   -19.0810     5.5730 hc         1 EJF       0.037367
     56 H25        -23.4640   -20.7090     2.5100 h4         1 EJF      -0.005800
     57 H26        -19.9730   -19.3850     1.6440 hc         1 EJF       0.071200
     58 H27        -20.1470   -19.2550     3.3860 hc         1 EJF       0.071200
     59 H28        -20.6210   -16.8330     3.1910 hc         1 EJF       0.092700
     60 H29        -21.4990   -16.2700     1.0300 hc         1 EJF       0.060700
     61 H30        -20.3530   -17.3350     0.2120 hc         1 EJF       0.060700
     62 H31        -19.1710   -15.2720    -0.0410 h1         1 EJF       0.044700
     63 H32        -19.8090   -14.6200     1.4730 h1         1 EJF       0.044700
     64 H33        -25.4350   -14.9530     3.5210 hn         1 EJF       0.327500
     65 H34        -21.9120   -12.1590     3.6810 hn         1 EJF       0.328500
     66 H35        -24.5730    -9.1430     5.8490 hn         1 EJF       0.368000
     67 H36        -22.5220   -18.4180     4.2090 hn         1 EJF       0.321500
     68 H37        -17.4110   -15.6700     1.7090 hn         1 EJF       0.326500
     69 C08        -23.2020   -11.2210     4.8590 c          1 EJF       0.636300
     70 O22        -22.3030   -14.8810     3.6890 o          1 EJF      -0.602100
     71 C20        -23.7070   -11.3400     1.3150 c3         1 EJF      -0.098100
     72 C21        -24.3760   -13.7010     0.8250 c3         1 EJF      -0.098100
     73 N27        -22.7730   -18.3310     3.2360 ns         1 EJF      -0.494900
     74 C24        -26.2030   -17.2740     5.7780 c3         1 EJF      -0.061700
@<TRIPOS>BOND
     1     1    10 2   
     2     1    11 1   
     3     1    32 1   
     4     2    12 ar  
     5     2    13 ar  
     6     2    33 1   
     7     3    13 ar  
     8     3    14 ar  
     9     3    34 1   
    10     4    42 1   
    11     4    43 1   
    12     4    44 1   
    13     4    74 1   
    14     5    18 1   
    15     5    19 1   
    16     5    45 1   
    17     5    73 1   
    18     6     7 1   
    19     6    28 2   
    20     6    73 1   
    21     7    16 1   
    22     7    24 1   
    23     7    46 1   
    24     8     9 1   
    25     8    24 1   
    26     8    70 2   
    27     9    15 1   
    28     9    25 1   
    29     9    47 1   
    30    10    26 1   
    31    10    69 1   
    32    11    12 ar  
    33    11    14 ar  
    34    12    48 1   
    35    13    49 1   
    36    14    26 1   
    37    15    50 1   
    38    15    71 1   
    39    15    72 1   
    40    16    51 1   
    41    16    52 1   
    42    16    74 1   
    43    17    53 1   
    44    17    54 1   
    45    17    55 1   
    46    17    74 1   
    47    18    30 2   
    48    18    56 1   
    49    19    20 1   
    50    19    57 1   
    51    19    58 1   
    52    20    21 1   
    53    20    23 1   
    54    20    59 1   
    55    21    22 1   
    56    21    60 1   
    57    21    61 1   
    58    22    27 1   
    59    22    62 1   
    60    22    63 1   
    61    23    27 1   
    62    23    31 2   
    63    24    64 1   
    64    25    65 1   
    65    25    69 1   
    66    26    66 1   
    67    27    68 1   
    68    29    69 2   
    69    35    71 1   
    70    36    71 1   
    71    37    71 1   
    72    38    72 1   
    73    39    72 1   
    74    40    72 1   
    75    41    74 1   
    76    67    73 1   
@<TRIPOS>SUBSTRUCTURE
     1 EJF         1 TEMP              0 ****  ****    0 ROOT
