@<TRIPOS>MOLECULE
EJG
   56    58     1     0     0
SMALL
abcg2


@<TRIPOS>ATOM
      1 C4          43.5700    16.3880     5.7530 c3         1 EJG      -0.110433
      2 C14         42.7260    17.8940    13.0500 cc         1 EJG      -0.104000
      3 C5          42.7000    17.2060     8.5820 c          1 EJG       0.657100
      4 C6          42.0840    17.2500    10.9230 cd         1 EJG      -0.030400
      5 C11         42.5470    14.5580    17.0400 ca         1 EJG      -0.105000
      6 C7          42.3860    16.5920    13.2980 cd         1 EJG      -0.150000
      7 C8          42.4370    15.8790    14.5750 ca         1 EJG      -0.012000
      8 C9          43.3450    16.2790    15.5590 ca         1 EJG      -0.097500
      9 C10         43.3940    15.6280    16.7810 ca         1 EJG      -0.108500
     10 C12         41.6470    14.1470    16.0660 ca         1 EJG      -0.108500
     11 C13         41.5890    14.8030    14.8460 ca         1 EJG      -0.097500
     12 N1          41.7590    17.2880     9.5730 ns         1 EJG      -0.416100
     13 N2          42.0910    20.6290    11.3910 ns         1 EJG      -0.497900
     14 C3          43.8310    18.8330     6.3400 c3         1 EJG      -0.110433
     15 C1          41.7770    18.0310     5.1850 c3         1 EJG      -0.110433
     16 C2          42.8650    17.6650     6.1860 c3         1 EJG       0.227000
     17 O1          42.1170    17.4570     7.4170 os         1 EJG      -0.487100
     18 O2          43.8610    16.9410     8.7740 o          1 EJG      -0.493000
     19 S1          41.8550    15.8150    11.8540 ss         1 EJG       0.223000
     20 C15         42.5520    18.2720    11.6950 cc         1 EJG      -0.163600
     21 C16         42.9340    19.6140    11.1500 c          1 EJG       0.630700
     22 O3          43.9910    19.7570    10.5560 o          1 EJG      -0.574100
     23 C17         40.7310    20.5510    11.8780 c3         1 EJG       0.113000
     24 C18         39.7030    20.2780    10.7740 c3         1 EJG      -0.057100
     25 C19         39.8510    21.2150     9.6070 ca         1 EJG      -0.088300
     26 C20         39.3590    22.5170     9.6740 ca         1 EJG      -0.106500
     27 C21         39.5400    23.4010     8.6180 ca         1 EJG      -0.108500
     28 C22         40.2170    22.9950     7.4750 ca         1 EJG      -0.108000
     29 C23         40.7100    21.7000     7.3970 ca         1 EJG      -0.108500
     30 C24         40.5280    20.8200     8.4560 ca         1 EJG      -0.106500
     31 H8          42.8720    15.5500     5.7130 hc         1 EJG       0.051144
     32 H9          43.9740    16.5260     4.7490 hc         1 EJG       0.051144
     33 H7          44.3960    16.1240     6.4090 hc         1 EJG       0.051144
     34 H16         43.0700    18.5760    13.8160 ha         1 EJG       0.142000
     35 H13         42.5900    14.0460    17.9930 ha         1 EJG       0.114000
     36 H11         44.0310    17.0930    15.3640 ha         1 EJG       0.116500
     37 H12         44.1050    15.9510    17.5300 ha         1 EJG       0.114500
     38 H14         40.9800    13.3160    16.2570 ha         1 EJG       0.114500
     39 H15         40.8630    14.4800    14.1080 ha         1 EJG       0.116500
     40 H10         40.7950    17.4390     9.3100 hn         1 EJG       0.336500
     41 H17         42.3760    21.5180    11.0040 hn         1 EJG       0.317500
     42 H4          44.6530    18.6120     7.0180 hc         1 EJG       0.051144
     43 H5          44.2590    19.0700     5.3660 hc         1 EJG       0.051144
     44 H6          43.3090    19.7230     6.6980 hc         1 EJG       0.051144
     45 H3          41.0480    17.2270     5.0730 hc         1 EJG       0.051144
     46 H1          41.2510    18.9370     5.4910 hc         1 EJG       0.051144
     47 H2          42.2240    18.2170     4.2090 hc         1 EJG       0.051144
     48 H18         40.6530    19.7880    12.6520 h1         1 EJG       0.054700
     49 H19         40.5080    21.5050    12.3570 h1         1 EJG       0.054700
     50 H21         38.7080    20.3690    11.2150 hc         1 EJG       0.051200
     51 H20         39.8000    19.2440    10.4380 hc         1 EJG       0.051200
     52 H22         38.8270    22.8430    10.5600 ha         1 EJG       0.113500
     53 H23         39.1490    24.4080     8.6870 ha         1 EJG       0.113000
     54 H24         40.3570    23.6830     6.6510 ha         1 EJG       0.114000
     55 H25         41.2380    21.3690     6.5110 ha         1 EJG       0.113000
     56 H26         40.9190    19.8130     8.3820 ha         1 EJG       0.113500
@<TRIPOS>BOND
     1     1    16 1   
     2     1    31 1   
     3     1    32 1   
     4     1    33 1   
     5     2     6 2   
     6     2    20 1   
     7     2    34 1   
     8     3    12 1   
     9     3    17 1   
    10     3    18 2   
    11     4    12 1   
    12     4    19 1   
    13     4    20 2   
    14     5     9 ar  
    15     5    10 ar  
    16     5    35 1   
    17     6     7 1   
    18     6    19 1   
    19     7     8 ar  
    20     7    11 ar  
    21     8     9 ar  
    22     8    36 1   
    23     9    37 1   
    24    10    11 ar  
    25    10    38 1   
    26    11    39 1   
    27    12    40 1   
    28    13    21 1   
    29    13    23 1   
    30    13    41 1   
    31    14    16 1   
    32    14    42 1   
    33    14    43 1   
    34    14    44 1   
    35    15    16 1   
    36    15    45 1   
    37    15    46 1   
    38    15    47 1   
    39    16    17 1   
    40    20    21 1   
    41    21    22 2   
    42    23    24 1   
    43    23    48 1   
    44    23    49 1   
    45    24    25 1   
    46    24    50 1   
    47    24    51 1   
    48    25    26 ar  
    49    25    30 ar  
    50    26    27 ar  
    51    26    52 1   
    52    27    28 ar  
    53    27    53 1   
    54    28    29 ar  
    55    28    54 1   
    56    29    30 ar  
    57    29    55 1   
    58    30    56 1   
@<TRIPOS>SUBSTRUCTURE
     1 EJG         1 TEMP              0 ****  ****    0 ROOT
