@<TRIPOS>MOLECULE
EJG
   56    58     1     0     0
SMALL
No Charge or Current Charge


@<TRIPOS>ATOM
      1 C4          44.3530    16.2000     5.6100 c3         1 EJG      -0.110433
      2 C14         42.4560    18.0550    12.4880 cc         1 EJG      -0.104000
      3 C5          43.0240    17.4330     8.0550 c          1 EJG       0.657100
      4 C6          42.0250    17.3760    10.3140 cd         1 EJG      -0.030400
      5 C11         41.6940    14.8730    16.6170 ca         1 EJG      -0.105000
      6 C7          41.9690    16.7980    12.7610 cd         1 EJG      -0.150000
      7 C8          41.8760    16.1380    14.0850 ca         1 EJG      -0.012000
      8 C9          42.3020    16.8000    15.2600 ca         1 EJG      -0.097500
      9 C10         42.2110    16.1720    16.5150 ca         1 EJG      -0.108500
     10 C12         41.2670    14.2020    15.4620 ca         1 EJG      -0.108500
     11 C13         41.3570    14.8280    14.2070 ca         1 EJG      -0.097500
     12 N1          41.9710    17.3480     8.9290 ns         1 EJG      -0.416100
     13 N2          42.9130    20.8530    11.4880 ns         1 EJG      -0.497900
     14 C3          44.0580    18.7700     5.5440 c3         1 EJG      -0.110433
     15 C1          42.3690    17.2450     4.4300 c3         1 EJG      -0.110433
     16 C2          43.3570    17.3880     5.6080 c3         1 EJG       0.227000
     17 O1          42.5190    17.3240     6.7850 os         1 EJG      -0.487100
     18 O2          44.1980    17.5410     8.3750 o          1 EJG      -0.493000
     19 S1          41.4140    16.0150    11.2720 ss         1 EJG       0.223000
     20 C15         42.4440    18.4330    11.1070 cc         1 EJG      -0.163600
     21 C16         42.8520    19.7940    10.6000 c          1 EJG       0.630700
     22 O3          43.1240    20.0440     9.4370 o          1 EJG      -0.574100
     23 C17         41.9820    21.1450    12.5960 c3         1 EJG       0.113000
     24 C18         40.4960    20.7940    12.3240 c3         1 EJG      -0.057100
     25 C19         39.9850    21.2860    10.9730 ca         1 EJG      -0.088300
     26 C20         39.9360    22.6660    10.6890 ca         1 EJG      -0.106500
     27 C21         39.4720    23.1180     9.4420 ca         1 EJG      -0.108500
     28 C22         39.0520    22.1940     8.4700 ca         1 EJG      -0.108000
     29 C23         39.0940    20.8170     8.7480 ca         1 EJG      -0.108500
     30 C24         39.5560    20.3650     9.9960 ca         1 EJG      -0.106500
     31 H8          43.8360    15.2590     5.8320 hc         1 EJG       0.051144
     32 H9          44.8290    16.1000     4.6270 hc         1 EJG       0.051144
     33 H7          45.1540    16.3360     6.3440 hc         1 EJG       0.051144
     34 H16         42.8580    18.7040    13.2510 ha         1 EJG       0.142000
     35 H13         41.6240    14.3870    17.5890 ha         1 EJG       0.114000
     36 H11         42.7060    17.8070    15.2180 ha         1 EJG       0.116500
     37 H12         42.5430    16.6960    17.4090 ha         1 EJG       0.114500
     38 H14         40.8650    13.1930    15.5380 ha         1 EJG       0.114500
     39 H15         41.0170    14.2780    13.3340 ha         1 EJG       0.116500
     40 H10         41.1230    17.0420     8.4690 hn         1 EJG       0.336500
     41 H17         43.3520    21.6680    11.0800 hn         1 EJG       0.317500
     42 H4          44.8590    18.8580     6.2860 hc         1 EJG       0.051144
     43 H5          44.5120    18.9220     4.5580 hc         1 EJG       0.051144
     44 H6          43.3390    19.5790     5.7150 hc         1 EJG       0.051144
     45 H3          41.8320    16.2900     4.4860 hc         1 EJG       0.051144
     46 H1          41.6280    18.0540     4.4410 hc         1 EJG       0.051144
     47 H2          42.8970    17.2810     3.4700 hc         1 EJG       0.051144
     48 H18         42.3250    20.6750    13.5240 h1         1 EJG       0.054700
     49 H19         42.0370    22.2280    12.7720 h1         1 EJG       0.054700
     50 H21         39.8890    21.2310    13.1260 hc         1 EJG       0.051200
     51 H20         40.3530    19.7120    12.4120 hc         1 EJG       0.051200
     52 H22         40.2580    23.3890    11.4350 ha         1 EJG       0.113500
     53 H23         39.4380    24.1840     9.2280 ha         1 EJG       0.113000
     54 H24         38.6940    22.5440     7.5040 ha         1 EJG       0.114000
     55 H25         38.7690    20.1010     7.9970 ha         1 EJG       0.113000
     56 H26         39.5870    19.2970    10.1990 ha         1 EJG       0.113500
@<TRIPOS>BOND
     1     1    16 1   
     2     1    31 1   
     3     1    32 1   
     4     1    33 1   
     5     2     6 2   
     6     2    20 1   
     7     2    34 1   
     8     3    12 1   
     9     3    17 1   
    10     3    18 2   
    11     4    12 1   
    12     4    19 1   
    13     4    20 2   
    14     5     9 ar  
    15     5    10 ar  
    16     5    35 1   
    17     6     7 1   
    18     6    19 1   
    19     7     8 ar  
    20     7    11 ar  
    21     8     9 ar  
    22     8    36 1   
    23     9    37 1   
    24    10    11 ar  
    25    10    38 1   
    26    11    39 1   
    27    12    40 1   
    28    13    21 1   
    29    13    23 1   
    30    13    41 1   
    31    14    16 1   
    32    14    42 1   
    33    14    43 1   
    34    14    44 1   
    35    15    16 1   
    36    15    45 1   
    37    15    46 1   
    38    15    47 1   
    39    16    17 1   
    40    20    21 1   
    41    21    22 2   
    42    23    24 1   
    43    23    48 1   
    44    23    49 1   
    45    24    25 1   
    46    24    50 1   
    47    24    51 1   
    48    25    26 ar  
    49    25    30 ar  
    50    26    27 ar  
    51    26    52 1   
    52    27    28 ar  
    53    27    53 1   
    54    28    29 ar  
    55    28    54 1   
    56    29    30 ar  
    57    29    55 1   
    58    30    56 1   
@<TRIPOS>SUBSTRUCTURE
     1 EJG         1 TEMP              0 ****  ****    0 ROOT
