@<TRIPOS>MOLECULE
EJH
   44    45     1     0     0
SMALL
No Charge or Current Charge


@<TRIPOS>ATOM
      1 C2          -4.9520    -1.8880    -0.3170 c          1 EJH       0.621000
      2 C4          -6.9400    -2.7100    -1.4840 c          1 EJH       0.581200
      3 C5          -6.9410    -1.4610    -2.2770 cc         1 EJH      -0.328400
      4 C6          -5.9650    -0.5110    -2.0650 cd         1 EJH      -0.060400
      5 C7          -8.0470    -1.3220    -3.2950 c3         1 EJH       0.013100
      6 O2          -4.1470    -2.1170     0.5710 o          1 EJH      -0.556000
      7 N1          -4.9710    -0.7130    -1.1070 n          1 EJH      -0.296000
      8 N3          -5.9350    -2.7910    -0.5770 ns         1 EJH      -0.472500
      9 O4          -7.7540    -3.6120    -1.5990 o          1 EJH      -0.621000
     10 PA           1.2590     0.6100    -1.0240 p5         1 EJH       1.461800
     11 PB           3.7300     1.2210    -0.2970 p5         1 EJH       1.503400
     12 PG           4.9440     0.4390     2.1790 p5         1 EJH       1.300500
     13 C1          -3.9080     0.3190    -0.9660 c5         1 EJH       0.348700
     14 O1A          0.5820     1.9050    -1.3290 o          1 EJH      -0.873500
     15 O2B          3.6550     2.4030    -1.2160 o          1 EJH      -0.847000
     16 O1G          6.2980     0.0940     1.6550 o          1 EJH      -0.901500
     17 C8          -4.2560     1.2140     0.2680 c5         1 EJH      -0.154400
     18 O2A          1.7890    -0.0570    -2.2510 o          1 EJH      -0.873500
     19 O1B          4.5960     0.1390    -0.8640 o          1 EJH      -0.847000
     20 Cl1          3.1530     3.0400     2.2230 cl         1 EJH      -0.380000
     21 O2G          5.1220     0.8510     3.6030 o          1 EJH      -0.901500
     22 C3          -3.0440     0.9700     1.2090 c5         1 EJH       0.120300
     23 O3          -2.7750     2.1080     2.0330 oh         1 EJH      -0.699000
     24 O3A          2.2990     0.7150     0.1530 os         1 EJH      -0.699800
     25 C3B          4.3080     1.8990     1.2990 c3         1 EJH      -0.366700
     26 O3G          4.0310    -0.7390     2.1330 o          1 EJH      -0.901500
     27 C9          -1.9280     0.6800     0.1620 c5         1 EJH       0.164300
     28 O6          -2.5960    -0.2270    -0.7400 os         1 EJH      -0.390000
     29 C10         -0.6390     0.0390     0.7570 c3         1 EJH       0.240600
     30 O5           0.2530    -0.4080    -0.2800 os         1 EJH      -0.550400
     31 H1          -5.8940     0.4300    -2.6060 h4         1 EJH       0.185000
     32 H2          -8.0030    -2.1270    -4.0380 hc         1 EJH       0.018033
     33 H3          -9.0320    -1.3550    -2.8130 hc         1 EJH       0.018033
     34 H4          -7.9730    -0.3690    -3.8330 hc         1 EJH       0.018033
     35 H5          -5.9180    -3.6270    -0.0150 hn         1 EJH       0.318500
     36 H6          -3.9040     0.9170    -1.8850 h2         1 EJH       0.039700
     37 H9          -4.3290     2.2630    -0.0400 hc         1 EJH       0.037700
     38 H10         -5.2080     0.9530     0.7450 hc         1 EJH       0.037700
     39 H13         -3.2120     0.0780     1.8290 h1         1 EJH       0.065700
     40 H14         -3.5790     2.2650     2.5790 ho         1 EJH       0.472000
     41 H15          5.1910     2.4950     1.0510 h1         1 EJH       0.052700
     42 H16         -1.6730     1.5980    -0.3800 h1         1 EJH       0.070700
     43 H17         -0.1440     0.7730     1.4070 h1         1 EJH       0.015200
     44 H18         -0.9280    -0.8130     1.3860 h1         1 EJH       0.015200
@<TRIPOS>BOND
     1     1     6 2   
     2     1     7 1   
     3     1     8 1   
     4     2     3 1   
     5     2     8 1   
     6     2     9 2   
     7     3     4 2   
     8     3     5 1   
     9     4     7 1   
    10     4    31 1   
    11     5    32 1   
    12     5    33 1   
    13     5    34 1   
    14     7    13 1   
    15     8    35 1   
    16    10    14 1   
    17    10    18 1   
    18    10    24 1   
    19    10    30 1   
    20    11    15 1   
    21    11    19 1   
    22    11    24 1   
    23    11    25 1   
    24    12    16 1   
    25    12    21 1   
    26    12    25 1   
    27    12    26 1   
    28    13    17 1   
    29    13    28 1   
    30    13    36 1   
    31    17    22 1   
    32    17    37 1   
    33    17    38 1   
    34    20    25 1   
    35    22    23 1   
    36    22    27 1   
    37    22    39 1   
    38    23    40 1   
    39    25    41 1   
    40    27    28 1   
    41    27    29 1   
    42    27    42 1   
    43    29    30 1   
    44    29    43 1   
    45    29    44 1   
@<TRIPOS>SUBSTRUCTURE
     1 EJH         1 TEMP              0 ****  ****    0 ROOT
