@<TRIPOS>MOLECULE
EJH
   44    45     1     0     0
SMALL
abcg2


@<TRIPOS>ATOM
      1 C2          -5.0820    -0.2150     0.7830 c          1 EJH       0.621000
      2 C4          -6.2250    -2.4180     0.7650 c          1 EJH       0.581200
      3 C5          -6.0180    -2.4720    -0.6680 cc         1 EJH      -0.328400
      4 C6          -5.3880    -1.4370    -1.2480 cd         1 EJH      -0.060400
      5 C7          -6.5040    -3.6650    -1.4230 c3         1 EJH       0.013100
      6 O2          -4.6990     0.7380     1.4270 o          1 EJH      -0.556000
      7 N1          -4.9310    -0.3310    -0.5800 n          1 EJH      -0.296000
      8 N3          -5.7230    -1.2810     1.3700 ns         1 EJH      -0.472500
      9 O4          -6.7880    -3.2740     1.4240 o          1 EJH      -0.621000
     10 PA           1.1390     1.8170     0.7330 p5         1 EJH       1.461800
     11 PB           3.6100     0.4540    -0.0290 p5         1 EJH       1.503400
     12 PG           5.5050    -2.0830     0.0060 p5         1 EJH       1.300500
     13 C1          -4.2340     0.7190    -1.3210 c5         1 EJH       0.348700
     14 O1A          0.9470     1.6350     2.2090 o          1 EJH      -0.873500
     15 O2B          4.1910     1.1680     1.1580 o          1 EJH      -0.847000
     16 O1G          6.3480    -1.2340     0.9570 o          1 EJH      -0.901500
     17 C8          -4.8020     2.1350    -1.1810 c5         1 EJH      -0.154400
     18 O2A          1.6350     3.1300     0.2070 o          1 EJH      -0.873500
     19 O1B          3.9950     0.8590    -1.4210 o          1 EJH      -0.847000
     20 CL1          2.6350    -2.2260    -0.8970 cl         1 EJH      -0.380000
     21 O2G          5.3360    -3.5370     0.4530 o          1 EJH      -0.901500
     22 C3          -3.6980     2.9340    -0.4870 c5         1 EJH       0.120300
     23 O3          -3.4960     4.2270    -0.9980 oh         1 EJH      -0.699000
     24 O3A          1.9420     0.5670     0.0790 os         1 EJH      -0.699800
     25 C3B          3.7780    -1.3500     0.2160 c3         1 EJH      -0.366700
     26 O3G          5.8560    -1.9250    -1.4690 o          1 EJH      -0.901500
     27 C9          -2.4520     2.0920    -0.7620 c5         1 EJH       0.164300
     28 O6          -2.9000     0.7550    -0.9020 os         1 EJH      -0.390000
     29 C10         -1.4240     2.1710     0.3390 c3         1 EJH       0.240600
     30 O5          -0.2810     1.4370    -0.0300 os         1 EJH      -0.550400
     31 H1          -5.1990    -1.4250    -2.3140 h4         1 EJH       0.185000
     32 H2          -6.0430    -4.5820    -1.0550 hc         1 EJH       0.018033
     33 H3          -7.5840    -3.7850    -1.3240 hc         1 EJH       0.018033
     34 H4          -6.2720    -3.5760    -2.4830 hc         1 EJH       0.018033
     35 H5          -5.8430    -1.2090     2.3730 hn         1 EJH       0.318500
     36 H6          -4.2950     0.3980    -2.3640 h2         1 EJH       0.039700
     37 H9          -4.9630     2.5460    -2.1790 hc         1 EJH       0.037700
     38 H10         -5.7570     2.1640    -0.6590 hc         1 EJH       0.037700
     39 H13         -3.8880     2.9720     0.5900 h1         1 EJH       0.065700
     40 H14         -4.1740     4.8040    -0.6350 ho         1 EJH       0.472000
     41 H15          3.4200    -1.5810     1.2230 h1         1 EJH       0.052700
     42 H16         -2.0040     2.4340    -1.7070 h1         1 EJH       0.070700
     43 H17         -1.1960     3.2330     0.5000 h1         1 EJH       0.015200
     44 H18         -1.8610     1.7850     1.2670 h1         1 EJH       0.015200
@<TRIPOS>BOND
     1     1     6 2   
     2     1     7 1   
     3     1     8 1   
     4     2     3 1   
     5     2     8 1   
     6     2     9 2   
     7     3     4 2   
     8     3     5 1   
     9     4     7 1   
    10     4    31 1   
    11     5    32 1   
    12     5    33 1   
    13     5    34 1   
    14     7    13 1   
    15     8    35 1   
    16    10    14 1   
    17    10    18 1   
    18    10    24 1   
    19    10    30 1   
    20    11    15 1   
    21    11    19 1   
    22    11    24 1   
    23    11    25 1   
    24    12    16 1   
    25    12    21 1   
    26    12    25 1   
    27    12    26 1   
    28    13    17 1   
    29    13    28 1   
    30    13    36 1   
    31    17    22 1   
    32    17    37 1   
    33    17    38 1   
    34    20    25 1   
    35    22    23 1   
    36    22    27 1   
    37    22    39 1   
    38    23    40 1   
    39    25    41 1   
    40    27    28 1   
    41    27    29 1   
    42    27    42 1   
    43    29    30 1   
    44    29    43 1   
    45    29    44 1   
@<TRIPOS>SUBSTRUCTURE
     1 EJH         1 TEMP              0 ****  ****    0 ROOT
