@<TRIPOS>MOLECULE
EJI
   53    56     1     0     0
SMALL
abcg2


@<TRIPOS>ATOM
      1 C7         -43.6720   -22.5890    -3.2640 ca         1 EJI      -0.150500
      2 C8         -42.4200   -19.5730    -5.1890 cy         1 EJI      -0.118400
      3 C9         -41.1280   -19.1250    -4.4910 c          1 EJI       0.575000
      4 C5         -43.3270   -20.5320    -4.4930 ca         1 EJI      -0.086300
      5 C6         -42.8250   -21.6700    -3.8640 ca         1 EJI      -0.069000
      6 C4         -44.7030   -20.3270    -4.4960 ca         1 EJI      -0.069000
      7 C3         -45.5690   -21.2360    -3.9040 ca         1 EJI      -0.150500
      8 C2         -45.0340   -22.3580    -3.3030 ca         1 EJI       0.180000
      9 F1         -45.8620   -23.2540    -2.7430 f          1 EJI      -0.176000
     10 O10        -40.8630   -18.6430    -3.4160 o          1 EJI      -0.505000
     11 N11        -40.3700   -19.5070    -5.5430 nj         1 EJI      -0.429800
     12 C12        -38.9530   -19.5610    -5.8100 c6         1 EJI       0.131700
     13 C13        -38.2480   -18.2450    -5.4970 c6         1 EJI      -0.112900
     14 C14        -36.7730   -18.3570    -5.8610 c6         1 EJI       0.099500
     15 N15        -36.1620   -19.4930    -5.2020 n          1 EJI      -0.423800
     16 C16        -35.1200   -19.3500    -4.3700 c          1 EJI       0.607900
     17 O17        -34.5600   -20.2470    -3.7640 o          1 EJI      -0.598100
     18 C23        -36.7950   -20.7730    -5.4500 c6         1 EJI       0.099500
     19 C24        -38.2720   -20.7200    -5.0820 c6         1 EJI      -0.112900
     20 C25        -41.4560   -20.1310    -6.2830 cy         1 EJI       0.145000
     21 C26        -41.6550   -19.6660    -7.6910 ca         1 EJI      -0.072300
     22 C27        -42.1640   -20.5500    -8.6370 ca         1 EJI      -0.112000
     23 C28        -42.3780   -20.1420    -9.9410 ca         1 EJI      -0.057000
     24 C29        -42.0750   -18.8380   -10.3270 ca         1 EJI      -0.135600
     25 C30        -42.2990   -18.4580   -11.7450 c          1 EJI       0.604700
     26 O31        -42.7350   -19.2130   -12.5790 o          1 EJI      -0.485000
     27 O32        -41.9640   -17.2030   -11.9970 os         1 EJI      -0.440100
     28 C33        -42.1270   -16.7330   -13.3350 c3         1 EJI       0.152900
     29 C34        -41.5650   -17.9490    -9.3820 ca         1 EJI      -0.057000
     30 C35        -41.3600   -18.3610    -8.0760 ca         1 EJI      -0.112000
     31 H39        -43.2780   -23.4730    -2.7800 ha         1 EJI       0.135000
     32 H40        -42.9780   -18.7100    -5.5610 hc         1 EJI       0.093700
     33 H38        -41.7580   -21.8570    -3.8410 ha         1 EJI       0.119000
     34 H37        -45.1140   -19.4470    -4.9760 ha         1 EJI       0.119000
     35 H36        -46.6390   -21.0750    -3.9160 ha         1 EJI       0.135000
     36 H41        -38.8660   -19.7370    -6.8880 h1         1 EJI       0.056700
     37 H42        -38.7020   -17.4310    -6.0680 hc         1 EJI       0.062450
     38 H43        -38.3470   -18.0020    -4.4370 hc         1 EJI       0.062450
     39 H44        -36.6700   -18.4730    -6.9450 h1         1 EJI       0.054450
     40 H45        -36.2400   -17.4490    -5.5800 h1         1 EJI       0.054450
     41 H16        -34.8020   -18.2990    -4.2860 h5         1 EJI       0.007200
     42 H48        -36.6880   -21.0220    -6.5120 h1         1 EJI       0.054450
     43 H49        -36.2790   -21.5430    -4.8810 h1         1 EJI       0.054450
     44 H51        -38.3810   -20.5930    -4.0020 hc         1 EJI       0.062450
     45 H50        -38.7450   -21.6660    -5.3540 hc         1 EJI       0.062450
     46 H52        -41.4040   -21.2240    -6.2550 h1         1 EJI       0.068700
     47 H53        -42.3910   -21.5700    -8.3510 ha         1 EJI       0.123500
     48 H54        -42.7720   -20.8430   -10.6640 ha         1 EJI       0.136500
     49 H56        -41.7920   -15.7000   -13.3300 h1         1 EJI       0.050367
     50 H57        -41.5210   -17.3070   -14.0350 h1         1 EJI       0.050367
     51 H55        -43.1710   -16.7730   -13.6460 h1         1 EJI       0.050367
     52 H58        -41.3210   -16.9320    -9.6550 ha         1 EJI       0.136500
     53 H59        -40.9620   -17.6570    -7.3540 ha         1 EJI       0.123500
@<TRIPOS>BOND
     1     1     5 ar  
     2     1     8 ar  
     3     1    31 1   
     4     2     3 1   
     5     2     4 1   
     6     2    20 1   
     7     2    32 1   
     8     3    10 2   
     9     3    11 1   
    10     4     5 ar  
    11     4     6 ar  
    12     5    33 1   
    13     6     7 ar  
    14     6    34 1   
    15     7     8 ar  
    16     7    35 1   
    17     8     9 1   
    18    11    12 1   
    19    11    20 1   
    20    12    13 1   
    21    12    19 1   
    22    12    36 1   
    23    13    14 1   
    24    13    37 1   
    25    13    38 1   
    26    14    15 1   
    27    14    39 1   
    28    14    40 1   
    29    15    16 1   
    30    15    18 1   
    31    16    17 2   
    32    16    41 1   
    33    18    19 1   
    34    18    42 1   
    35    18    43 1   
    36    19    44 1   
    37    19    45 1   
    38    20    21 1   
    39    20    46 1   
    40    21    22 ar  
    41    21    30 ar  
    42    22    23 ar  
    43    22    47 1   
    44    23    24 ar  
    45    23    48 1   
    46    24    25 1   
    47    24    29 ar  
    48    25    26 2   
    49    25    27 1   
    50    27    28 1   
    51    28    49 1   
    52    28    50 1   
    53    28    51 1   
    54    29    30 ar  
    55    29    52 1   
    56    30    53 1   
@<TRIPOS>SUBSTRUCTURE
     1 EJI         1 TEMP              0 ****  ****    0 ROOT
