@<TRIPOS>MOLECULE
EJI
   53    56     1     0     0
SMALL
No Charge or Current Charge


@<TRIPOS>ATOM
      1 C7         -43.3940   -22.4160    -2.9340 ca         1 EJI      -0.150500
      2 C8         -42.7000   -19.5140    -5.3750 cy         1 EJI      -0.118400
      3 C9         -41.5030   -18.8300    -4.6560 c          1 EJI       0.575000
      4 C5         -43.4170   -20.4900    -4.4370 ca         1 EJI      -0.086300
      5 C6         -42.7160   -21.5330    -3.7920 ca         1 EJI      -0.069000
      6 C4         -44.7990   -20.3420    -4.2080 ca         1 EJI      -0.069000
      7 C3         -45.4750   -21.2260    -3.3480 ca         1 EJI      -0.150500
      8 C2         -44.7710   -22.2610    -2.7150 ca         1 EJI       0.180000
      9 F1         -45.4210   -23.1100    -1.8890 f          1 EJI      -0.176000
     10 O10        -41.3780   -18.0770    -3.7010 o          1 EJI      -0.505000
     11 N11        -40.5870   -19.4150    -5.5410 nj         1 EJI      -0.429800
     12 C12        -39.1380   -19.3980    -5.7590 c6         1 EJI       0.131700
     13 C13        -38.4390   -18.3490    -4.8750 c6         1 EJI      -0.112900
     14 C14        -36.9150   -18.3320    -5.1230 c6         1 EJI       0.099500
     15 N15        -36.2680   -19.6720    -5.0760 n          1 EJI      -0.423800
     16 C16        -34.8740   -19.7480    -4.9060 c          1 EJI       0.607900
     17 O17        -34.2400   -20.7880    -5.0490 o          1 EJI      -0.598100
     18 C23        -37.0170   -20.8110    -5.6830 c6         1 EJI       0.099500
     19 C24        -38.5430   -20.7800    -5.4410 c6         1 EJI      -0.112900
     20 C25        -41.6200   -20.0860    -6.3560 cy         1 EJI       0.145000
     21 C26        -41.7040   -19.6680    -7.8220 ca         1 EJI      -0.072300
     22 C27        -41.7450   -20.6460    -8.8310 ca         1 EJI      -0.112000
     23 C28        -41.8140   -20.2730   -10.1850 ca         1 EJI      -0.057000
     24 C29        -41.8400   -18.9100   -10.5550 ca         1 EJI      -0.135600
     25 C30        -41.9130   -18.5290   -12.0170 c          1 EJI       0.604700
     26 O31        -41.9530   -19.3570   -12.9190 o          1 EJI      -0.485000
     27 O32        -41.9310   -17.1730   -12.2350 os         1 EJI      -0.440100
     28 C33        -42.0000   -16.7040   -13.5950 c3         1 EJI       0.152900
     29 C34        -41.7940   -17.9300    -9.5370 ca         1 EJI      -0.057000
     30 C35        -41.7260   -18.3070    -8.1850 ca         1 EJI      -0.112000
     31 H39        -42.8550   -23.2190    -2.4370 ha         1 EJI       0.135000
     32 H40        -43.3450   -18.7470    -5.8130 hc         1 EJI       0.093700
     33 H38        -41.6470   -21.6620    -3.9490 ha         1 EJI       0.119000
     34 H37        -45.3530   -19.5420    -4.6950 ha         1 EJI       0.119000
     35 H36        -46.5420   -21.1110    -3.1730 ha         1 EJI       0.135000
     36 H41        -38.9460   -19.1590    -6.8160 h1         1 EJI       0.056700
     37 H42        -38.8530   -17.3510    -5.0710 hc         1 EJI       0.062450
     38 H43        -38.6270   -18.5680    -3.8150 hc         1 EJI       0.062450
     39 H44        -36.7230   -17.8940    -6.1140 h1         1 EJI       0.054450
     40 H45        -36.4420   -17.6710    -4.3830 h1         1 EJI       0.054450
     41 H16        -34.4160   -18.7790    -4.6290 h5         1 EJI       0.007200
     42 H48        -36.8320   -20.8020    -6.7670 h1         1 EJI       0.054450
     43 H49        -36.6210   -21.7610    -5.2980 h1         1 EJI       0.054450
     44 H51        -38.7500   -21.0400    -4.3940 hc         1 EJI       0.062450
     45 H50        -39.0240   -21.5530    -6.0550 hc         1 EJI       0.062450
     46 H52        -41.5230   -21.1760    -6.2940 h1         1 EJI       0.068700
     47 H53        -41.7250   -21.7020    -8.5700 ha         1 EJI       0.123500
     48 H54        -41.8460   -21.0500   -10.9460 ha         1 EJI       0.136500
     49 H56        -42.0070   -15.6070   -13.6200 h1         1 EJI       0.050367
     50 H57        -41.1350   -17.0520   -14.1740 h1         1 EJI       0.050367
     51 H55        -42.9140   -17.0610   -14.0870 h1         1 EJI       0.050367
     52 H58        -41.8090   -16.8700    -9.7840 ha         1 EJI       0.136500
     53 H59        -41.6850   -17.5360    -7.4200 ha         1 EJI       0.123500
@<TRIPOS>BOND
     1     1     5 ar  
     2     1     8 ar  
     3     1    31 1   
     4     2     3 1   
     5     2     4 1   
     6     2    20 1   
     7     2    32 1   
     8     3    10 2   
     9     3    11 1   
    10     4     5 ar  
    11     4     6 ar  
    12     5    33 1   
    13     6     7 ar  
    14     6    34 1   
    15     7     8 ar  
    16     7    35 1   
    17     8     9 1   
    18    11    12 1   
    19    11    20 1   
    20    12    13 1   
    21    12    19 1   
    22    12    36 1   
    23    13    14 1   
    24    13    37 1   
    25    13    38 1   
    26    14    15 1   
    27    14    39 1   
    28    14    40 1   
    29    15    16 1   
    30    15    18 1   
    31    16    17 2   
    32    16    41 1   
    33    18    19 1   
    34    18    42 1   
    35    18    43 1   
    36    19    44 1   
    37    19    45 1   
    38    20    21 1   
    39    20    46 1   
    40    21    22 ar  
    41    21    30 ar  
    42    22    23 ar  
    43    22    47 1   
    44    23    24 ar  
    45    23    48 1   
    46    24    25 1   
    47    24    29 ar  
    48    25    26 2   
    49    25    27 1   
    50    27    28 1   
    51    28    49 1   
    52    28    50 1   
    53    28    51 1   
    54    29    30 ar  
    55    29    52 1   
    56    30    53 1   
@<TRIPOS>SUBSTRUCTURE
     1 EJI         1 TEMP              0 ****  ****    0 ROOT
