@<TRIPOS>MOLECULE
EJK
   45    47     1     0     0
SMALL
bcc


@<TRIPOS>ATOM
      1 C4          -5.5120     0.7690    -0.3730 c6         1 EJK       0.123100
      2 C5          -4.1330     1.4170    -0.2340 c6         1 EJK       0.148100
      3 C6          -4.2130     2.9270    -0.2920 c3         1 EJK       0.146400
      4 C3          -5.4040    -0.7330    -0.1300 c6         1 EJK       0.118100
      5 C1          -3.4090    -0.2650     1.2890 c6         1 EJK       0.311900
      6 C2          -4.7450    -1.0110     1.2190 c6         1 EJK       0.101100
      7 CAA         -1.2420    -0.6350     0.3480 ca         1 EJK       0.176100
      8 CAB         -0.5930     0.2700     1.1830 ca         1 EJK      -0.191000
      9 CAC          0.7800     0.4380     1.0990 ca         1 EJK      -0.055000
     10 CAD          1.5320    -0.2800     0.1780 cp         1 EJK      -0.091000
     11 CAE          0.8880    -1.1720    -0.6740 ca         1 EJK      -0.057000
     12 CAF         -0.4790    -1.3370    -0.5900 ca         1 EJK      -0.016600
     13 CAG          2.9950    -0.1110     0.1020 cp         1 EJK      -0.039000
     14 CAH          3.8510    -1.1830     0.3230 ca         1 EJK       0.110900
     15 CAI          5.2200    -1.0380     0.2530 ca         1 EJK       0.145900
     16 CAJ          5.7790     0.2000    -0.0390 ca         1 EJK      -0.059000
     17 CAK          4.9340     1.2800    -0.2610 ca         1 EJK       0.145900
     18 CAL          3.5660     1.1200    -0.1930 ca         1 EJK       0.110900
     19 CBE          7.1880     0.3580    -0.1070 cg         1 EJK       0.232800
     20 FAH          3.3490    -2.3750     0.6240 f          1 EJK      -0.102900
     21 FAI          6.0150    -2.0720     0.4720 f          1 EJK      -0.096900
     22 FAK          5.4570     2.4610    -0.5480 f          1 EJK      -0.096900
     23 FAL          2.7880     2.1700    -0.4270 f          1 EJK      -0.102900
     24 NBF          8.3300     0.4860    -0.1610 n1         1 EJK      -0.312800
     25 O1          -2.5540    -0.9080     0.3640 os         1 EJK      -0.346900
     26 O2          -5.5940    -0.5480     2.2350 oh         1 EJK      -0.564800
     27 O3          -6.7010    -1.2710    -0.2130 oh         1 EJK      -0.587800
     28 O4          -5.9750     1.0400    -1.6740 oh         1 EJK      -0.597800
     29 O5          -3.5460     1.0820     1.0180 os         1 EJK      -0.396600
     30 O6          -2.9080     3.4510    -0.2720 oh         1 EJK      -0.589800
     31 CL1         -1.2750    -2.4380    -1.6550 cl         1 EJK      -0.089400
     32 H41         -6.1850     1.2050     0.3810 h1         1 EJK       0.070700
     33 H5          -3.4980     1.0640    -1.0580 h1         1 EJK       0.074700
     34 H61         -4.7480     3.2080    -1.2060 h1         1 EJK       0.038200
     35 H62         -4.8130     3.2840     0.5570 h1         1 EJK       0.038200
     36 H31         -4.7600    -1.1550    -0.9130 h1         1 EJK       0.064700
     37 H1          -2.9900    -0.3360     2.2990 h2         1 EJK       0.079700
     38 H21         -4.5500    -2.0870     1.3170 h1         1 EJK       0.054700
     39 HAB         -1.1400     0.8550     1.9070 ha         1 EJK       0.159000
     40 HAC          1.2610     1.1320     1.7760 ha         1 EJK       0.143000
     41 HAE          1.4460    -1.7260    -1.4170 ha         1 EJK       0.154000
     42 H22         -5.3050    -0.9210     3.0740 ho         1 EJK       0.407000
     43 H32         -6.6350    -2.2060    -0.4280 ho         1 EJK       0.411000
     44 H42         -6.8200     0.5910    -1.7840 ho         1 EJK       0.425000
     45 H63         -2.9720     4.4070    -0.3490 ho         1 EJK       0.406000
@<TRIPOS>BOND
     1     1     2 1   
     2     1     4 1   
     3     1    28 1   
     4     1    32 1   
     5     2     3 1   
     6     2    29 1   
     7     2    33 1   
     8     3    30 1   
     9     3    34 1   
    10     3    35 1   
    11     4     6 1   
    12     4    27 1   
    13     4    36 1   
    14     5     6 1   
    15     5    25 1   
    16     5    29 1   
    17     5    37 1   
    18     6    26 1   
    19     6    38 1   
    20     7     8 ar  
    21     7    12 ar  
    22     7    25 1   
    23     8     9 ar  
    24     8    39 1   
    25     9    10 ar  
    26     9    40 1   
    27    10    11 ar  
    28    10    13 1   
    29    11    12 ar  
    30    11    41 1   
    31    12    31 1   
    32    13    14 ar  
    33    13    18 ar  
    34    14    15 ar  
    35    14    20 1   
    36    15    16 ar  
    37    15    21 1   
    38    16    17 ar  
    39    16    19 1   
    40    17    18 ar  
    41    17    22 1   
    42    18    23 1   
    43    19    24 3   
    44    26    42 1   
    45    27    43 1   
    46    28    44 1   
    47    30    45 1   
@<TRIPOS>SUBSTRUCTURE
     1 EJK         1 TEMP              0 ****  ****    0 ROOT
