@<TRIPOS>MOLECULE
EJK
   45    47     1     0     0
SMALL
No Charge or Current Charge


@<TRIPOS>ATOM
      1 C4          -5.4950     0.7700    -0.4760 c6         1 EJK       0.146300
      2 C5          -4.0410     1.3100    -0.3060 c6         1 EJK       0.171300
      3 C6          -3.9550     2.8590    -0.5070 c3         1 EJK       0.169600
      4 C3          -5.5360    -0.7570    -0.1530 c6         1 EJK       0.141300
      5 C1          -3.4960    -0.4220     1.3320 c6         1 EJK       0.358300
      6 C2          -4.9400    -1.0370     1.2590 c6         1 EJK       0.124300
      7 CAA         -1.2560    -0.8220     0.3660 ca         1 EJK       0.176100
      8 CAB         -0.6110    -0.0040     1.3200 ca         1 EJK      -0.173000
      9 CAC          0.7730     0.2300     1.2320 ca         1 EJK      -0.037000
     10 CAD          1.5490    -0.3450     0.1970 cp         1 EJK      -0.091000
     11 CAE          0.8900    -1.1640    -0.7510 ca         1 EJK      -0.039000
     12 CAF         -0.4920    -1.4010    -0.6690 ca         1 EJK       0.075000
     13 CAG          3.0240    -0.0950     0.1080 cp         1 EJK      -0.039000
     14 CAH          3.9460    -1.1690    -0.0070 ca         1 EJK       0.146000
     15 CAI          5.3330    -0.9340    -0.0890 ca         1 EJK       0.181000
     16 CAJ          5.8360     0.3810    -0.0610 ca         1 EJK      -0.059000
     17 CAK          4.9360     1.4580     0.0510 ca         1 EJK       0.181000
     18 CAL          3.5500     1.2250     0.1350 ca         1 EJK       0.146000
     19 CBE          7.2490     0.6200    -0.1460 cg         1 EJK       0.322000
     20 FAH          3.4990    -2.4480    -0.0150 f          1 EJK      -0.138000
     21 FAI          6.1810    -1.9860    -0.1920 f          1 EJK      -0.132000
     22 FAK          5.3990     2.7330     0.0750 f          1 EJK      -0.132000
     23 FAL          2.7120     2.2860     0.2200 f          1 EJK      -0.138000
     24 NBF          8.3990     0.8140    -0.2060 n1         1 EJK      -0.402000
     25 O1          -2.6140    -1.0920     0.4080 os         1 EJK      -0.370100
     26 O2          -5.8350    -0.4910     2.2650 oh         1 EJK      -0.687000
     27 O3          -6.8900    -1.2410    -0.2160 oh         1 EJK      -0.650000
     28 O4          -6.0080     1.0010    -1.8040 oh         1 EJK      -0.720000
     29 O5          -3.5390     0.9920     1.0230 os         1 EJK      -0.443000
     30 O6          -2.6280     3.3920    -0.3120 oh         1 EJK      -0.712000
     31 Cl1         -1.2580    -2.4260    -1.8860 cl         1 EJK      -0.181000
     32 H41         -6.1290     1.2910     0.2590 h1         1 EJK       0.070700
     33 H5          -3.3900     0.8390    -1.0570 h1         1 EJK       0.074700
     34 H61         -4.3050     3.0930    -1.5210 h1         1 EJK       0.038200
     35 H62         -4.6570     3.3310     0.1940 h1         1 EJK       0.038200
     36 H31         -4.9180    -1.2820    -0.8980 h1         1 EJK       0.064700
     37 H1          -3.1150    -0.5620     2.3540 h2         1 EJK       0.079700
     38 H21         -4.8510    -2.1260     1.3890 h1         1 EJK       0.054700
     39 HAB         -1.1600     0.4590     2.1340 ha         1 EJK       0.141000
     40 HAC          1.2520     0.8570     1.9810 ha         1 EJK       0.125000
     41 HAE          1.4550    -1.6130    -1.5640 ha         1 EJK       0.136000
     42 H22         -5.4850    -0.7470     3.1500 ho         1 EJK       0.506000
     43 H32         -7.2340    -1.1220     0.7000 ho         1 EJK       0.450000
     44 H42         -6.7670     0.3760    -1.9000 ho         1 EJK       0.524000
     45 H63         -2.6960     4.3710    -0.3940 ho         1 EJK       0.505000
@<TRIPOS>BOND
     1     1     2 1   
     2     1     4 1   
     3     1    28 1   
     4     1    32 1   
     5     2     3 1   
     6     2    29 1   
     7     2    33 1   
     8     3    30 1   
     9     3    34 1   
    10     3    35 1   
    11     4     6 1   
    12     4    27 1   
    13     4    36 1   
    14     5     6 1   
    15     5    25 1   
    16     5    29 1   
    17     5    37 1   
    18     6    26 1   
    19     6    38 1   
    20     7     8 ar  
    21     7    12 ar  
    22     7    25 1   
    23     8     9 ar  
    24     8    39 1   
    25     9    10 ar  
    26     9    40 1   
    27    10    11 ar  
    28    10    13 1   
    29    11    12 ar  
    30    11    41 1   
    31    12    31 1   
    32    13    14 ar  
    33    13    18 ar  
    34    14    15 ar  
    35    14    20 1   
    36    15    16 ar  
    37    15    21 1   
    38    16    17 ar  
    39    16    19 1   
    40    17    18 ar  
    41    17    22 1   
    42    18    23 1   
    43    19    24 3   
    44    26    42 1   
    45    27    43 1   
    46    28    44 1   
    47    30    45 1   
@<TRIPOS>SUBSTRUCTURE
     1 EJK         1 TEMP              0 ****  ****    0 ROOT
