@<TRIPOS>MOLECULE
EJL
   58    57     1     0     0
SMALL
No Charge or Current Charge


@<TRIPOS>ATOM
      1 C24        -11.8200    -0.0610    -1.1160 c3         1 EJL      -0.085100
      2 C23        -11.4740    -1.3530    -0.3550 c3         1 EJL      -0.044200
      3 C22        -10.5660    -2.2660    -1.1570 c2         1 EJL      -0.220200
      4 C21         -9.2200    -2.2740    -1.1660 c2         1 EJL      -0.210200
      5 C20         -8.2850    -1.3520    -0.4060 c3         1 EJL      -0.012000
      6 C19         -7.3780    -2.1420     0.5200 c2         1 EJL      -0.218200
      7 C18         -6.1430    -1.7990     0.9290 c2         1 EJL      -0.209200
      8 C17         -5.3780    -0.5360     0.5760 c3         1 EJL      -0.012000
      9 C16         -4.6840     0.0370     1.7980 c2         1 EJL      -0.220200
     10 C15         -3.5110     0.6960     1.8330 c2         1 EJL      -0.206200
     11 C14         -2.6140     1.0390     0.6580 c3         1 EJL      -0.012000
     12 C13         -2.0550     2.4430     0.8000 c2         1 EJL      -0.220200
     13 C12         -0.8070     2.8550     0.5160 c2         1 EJL      -0.206200
     14 C11          0.3320     2.0160    -0.0320 c3         1 EJL      -0.013000
     15 C10          1.2410     2.8520    -0.9130 c2         1 EJL      -0.214200
     16 C9           2.5350     3.1580    -0.7000 c2         1 EJL      -0.204200
     17 C8           3.3890     2.7750     0.4960 c3         1 EJL       0.039900
     18 C7           4.1220     1.5320     0.2330 c1         1 EJL      -0.113100
     19 C6           4.6950     0.4840     0.0040 cg         1 EJL      -0.169200
     20 C5           5.4270    -0.7490    -0.2520 c          1 EJL       0.595300
     21 O2           5.0280    -1.5590    -1.0790 o          1 EJL      -0.504100
     22 C4           6.7160    -0.9610     0.5560 c3         1 EJL      -0.167400
     23 C3           7.9590    -0.4770    -0.2290 c3         1 EJL      -0.047400
     24 C2           9.2810    -0.6630     0.5540 c3         1 EJL      -0.208400
     25 C1          10.4700    -0.1630    -0.2860 c          1 EJL       0.718000
     26 O1          10.7840     1.0140    -0.1960 o          1 EJL      -0.739500
     27 O3          11.0110    -0.9520    -1.0460 o          1 EJL      -0.739500
     28 H1         -10.9110     0.5100    -1.3420 hc         1 EJL       0.031700
     29 H2         -12.3270    -0.2920    -2.0600 hc         1 EJL       0.031700
     30 H3         -12.4830     0.5720    -0.5150 hc         1 EJL       0.031700
     31 H4         -11.0150    -1.0880     0.6050 hc         1 EJL       0.043200
     32 H5         -12.4030    -1.8810    -0.1060 hc         1 EJL       0.043200
     33 H6         -11.1080    -2.9890    -1.7710 ha         1 EJL       0.164000
     34 H7          -8.6950    -2.9980    -1.7940 ha         1 EJL       0.168000
     35 H8          -7.6900    -0.7780    -1.1270 hc         1 EJL       0.050200
     36 H9          -8.8420    -0.6110     0.1770 hc         1 EJL       0.050200
     37 H10         -7.8120    -3.0830     0.8630 ha         1 EJL       0.168000
     38 H11         -5.5940    -2.4720     1.5910 ha         1 EJL       0.170000
     39 H12         -4.6490    -0.7700    -0.2090 hc         1 EJL       0.049700
     40 H13         -6.0490     0.2230     0.1580 hc         1 EJL       0.049700
     41 H14         -5.2290    -0.1280     2.7300 ha         1 EJL       0.167000
     42 H15         -3.1250     1.0450     2.7930 ha         1 EJL       0.171000
     43 H16         -1.8060     0.3010     0.5990 hc         1 EJL       0.051200
     44 H17         -3.1640     0.9700    -0.2880 hc         1 EJL       0.051200
     45 H18         -2.7810     3.1650     1.1810 ha         1 EJL       0.165000
     46 H19         -0.5410     3.9020     0.6780 ha         1 EJL       0.168000
     47 H20          0.8860     1.5670     0.8000 hc         1 EJL       0.053700
     48 H21         -0.0550     1.1740    -0.6190 hc         1 EJL       0.053700
     49 H22          0.7520     3.2070    -1.8230 ha         1 EJL       0.167000
     50 H23          3.0690     3.7630    -1.4360 ha         1 EJL       0.178000
     51 H24          4.1060     3.5740     0.7210 hc         1 EJL       0.061700
     52 H25          2.7820     2.6470     1.4000 hc         1 EJL       0.061700
     53 H26          6.6670    -0.3780     1.4830 hc         1 EJL       0.054200
     54 H27          6.8300    -2.0280     0.7800 hc         1 EJL       0.054200
     55 H28          8.0220    -1.0230    -1.1790 hc         1 EJL       0.054200
     56 H29          7.8360     0.5850    -0.4820 hc         1 EJL       0.054200
     57 H30          9.1770    -0.0640     1.4670 hc         1 EJL       0.014200
     58 H31          9.3690    -1.7410     0.7420 hc         1 EJL       0.014200
@<TRIPOS>BOND
     1     1     2 1   
     2     1    28 1   
     3     1    29 1   
     4     1    30 1   
     5     2     3 1   
     6     2    31 1   
     7     2    32 1   
     8     3     4 2   
     9     3    33 1   
    10     4     5 1   
    11     4    34 1   
    12     5     6 1   
    13     5    35 1   
    14     5    36 1   
    15     6     7 2   
    16     6    37 1   
    17     7     8 1   
    18     7    38 1   
    19     8     9 1   
    20     8    39 1   
    21     8    40 1   
    22     9    10 2   
    23     9    41 1   
    24    10    11 1   
    25    10    42 1   
    26    11    12 1   
    27    11    43 1   
    28    11    44 1   
    29    12    13 2   
    30    12    45 1   
    31    13    14 1   
    32    13    46 1   
    33    14    15 1   
    34    14    47 1   
    35    14    48 1   
    36    15    16 2   
    37    15    49 1   
    38    16    17 1   
    39    16    50 1   
    40    17    18 1   
    41    17    51 1   
    42    17    52 1   
    43    18    19 3   
    44    19    20 1   
    45    20    21 2   
    46    20    22 1   
    47    22    23 1   
    48    22    53 1   
    49    22    54 1   
    50    23    24 1   
    51    23    55 1   
    52    23    56 1   
    53    24    25 1   
    54    24    57 1   
    55    24    58 1   
    56    25    26 1   
    57    25    27 1   
@<TRIPOS>SUBSTRUCTURE
     1 EJL         1 TEMP              0 ****  ****    0 ROOT
