@<TRIPOS>MOLECULE
EJL
   58    57     1     0     0
SMALL
abcg2


@<TRIPOS>ATOM
      1 C24        -12.9500    -1.4760     0.7350 c3         1 EJL      -0.085100
      2 C23        -11.7670    -1.8410    -0.1600 c3         1 EJL      -0.044200
      3 C22        -11.1400    -0.6310    -0.7790 c2         1 EJL      -0.220200
      4 C21         -9.9120    -0.1570    -0.5730 c2         1 EJL      -0.210200
      5 C20         -8.8460    -0.7490     0.3050 c3         1 EJL      -0.012000
      6 C19         -7.7610    -1.3650    -0.5310 c2         1 EJL      -0.218200
      7 C18         -6.5170    -0.9180    -0.6950 c2         1 EJL      -0.209200
      8 C17         -5.8900     0.2850    -0.0520 c3         1 EJL      -0.012000
      9 C16         -4.8700    -0.1360     0.9680 c2         1 EJL      -0.220200
     10 C15         -3.5450    -0.0500     0.8690 c2         1 EJL      -0.206200
     11 C14         -2.7520     0.5200    -0.2720 c3         1 EJL      -0.012000
     12 C13         -2.1070     1.8160     0.1270 c2         1 EJL      -0.220200
     13 C12         -0.8070     2.0650     0.2630 c2         1 EJL      -0.206200
     14 C11          0.3320     1.1170     0.0150 c3         1 EJL      -0.013000
     15 C10          1.0620     1.5020    -1.2390 c2         1 EJL      -0.214200
     16 C9           2.2830     2.0190    -1.3470 c2         1 EJL      -0.204200
     17 C8           3.2300     2.3220    -0.2190 c3         1 EJL       0.039900
     18 C7           4.4850     1.5980    -0.3590 c1         1 EJL      -0.113100
     19 C6           5.5180     0.9920    -0.5040 cg         1 EJL      -0.169200
     20 C5           6.7710     0.2850    -0.6720 c          1 EJL       0.595300
     21 O2           6.9950    -0.3360    -1.6870 o          1 EJL      -0.504100
     22 C4           7.7260     0.3900     0.4820 c3         1 EJL      -0.167400
     23 C3           9.0710    -0.2860     0.2660 c3         1 EJL      -0.047400
     24 C2           9.9700    -0.1180     1.4810 c3         1 EJL      -0.208400
     25 C1          11.3700    -0.7480     1.3720 c          1 EJL       0.718000
     26 O1          11.6630    -1.3410     0.3150 o          1 EJL      -0.739500
     27 O3          12.1070    -0.6100     2.3710 o          1 EJL      -0.739500
     28 H1         -12.6280    -0.8630     1.5780 hc         1 EJL       0.031700
     29 H2         -13.7030    -0.9100     0.1840 hc         1 EJL       0.031700
     30 H3         -13.4310    -2.3690     1.1330 hc         1 EJL       0.031700
     31 H4         -11.0370    -2.4150     0.4110 hc         1 EJL       0.043200
     32 H5         -12.1190    -2.5020    -0.9590 hc         1 EJL       0.043200
     33 H6         -11.7840    -0.0770    -1.4580 ha         1 EJL       0.164000
     34 H7          -9.6170     0.7420    -1.1070 ha         1 EJL       0.168000
     35 H8          -8.4380     0.0290     0.9530 hc         1 EJL       0.050200
     36 H9          -9.2690    -1.5110     0.9640 hc         1 EJL       0.050200
     37 H10         -8.0540    -2.2590    -1.0730 ha         1 EJL       0.168000
     38 H11         -5.8550    -1.4850    -1.3430 ha         1 EJL       0.170000
     39 H12         -5.4330     0.9070    -0.8250 hc         1 EJL       0.049700
     40 H13         -6.6470     0.9030     0.4350 hc         1 EJL       0.049700
     41 H14         -5.2830    -0.5810     1.8680 ha         1 EJL       0.167000
     42 H15         -2.9510    -0.4090     1.7050 ha         1 EJL       0.171000
     43 H16         -1.9980    -0.2080    -0.5810 hc         1 EJL       0.051200
     44 H17         -3.3890     0.6890    -1.1420 hc         1 EJL       0.051200
     45 H18         -2.8020     2.6240     0.3410 ha         1 EJL       0.165000
     46 H19         -0.5090     3.0670     0.5600 ha         1 EJL       0.168000
     47 H20          1.0000     1.1230     0.8790 hc         1 EJL       0.053700
     48 H21         -0.0310     0.0920    -0.0890 hc         1 EJL       0.053700
     49 H22          0.4990     1.3600    -2.1560 ha         1 EJL       0.167000
     50 H23          2.6580     2.2560    -2.3370 ha         1 EJL       0.178000
     51 H24          3.4600     3.3920    -0.2050 hc         1 EJL       0.061700
     52 H25          2.7970     2.0950     0.7560 hc         1 EJL       0.061700
     53 H26          7.8520     1.4550     0.7090 hc         1 EJL       0.054200
     54 H27          7.2150    -0.0200     1.3610 hc         1 EJL       0.054200
     55 H28          8.9230    -1.3470     0.0570 hc         1 EJL       0.054200
     56 H29          9.5570     0.1350    -0.6160 hc         1 EJL       0.054200
     57 H30         10.0920     0.9480     1.7050 hc         1 EJL       0.014200
     58 H31          9.4770    -0.5370     2.3660 hc         1 EJL       0.014200
@<TRIPOS>BOND
     1     1     2 1   
     2     1    28 1   
     3     1    29 1   
     4     1    30 1   
     5     2     3 1   
     6     2    31 1   
     7     2    32 1   
     8     3     4 2   
     9     3    33 1   
    10     4     5 1   
    11     4    34 1   
    12     5     6 1   
    13     5    35 1   
    14     5    36 1   
    15     6     7 2   
    16     6    37 1   
    17     7     8 1   
    18     7    38 1   
    19     8     9 1   
    20     8    39 1   
    21     8    40 1   
    22     9    10 2   
    23     9    41 1   
    24    10    11 1   
    25    10    42 1   
    26    11    12 1   
    27    11    43 1   
    28    11    44 1   
    29    12    13 2   
    30    12    45 1   
    31    13    14 1   
    32    13    46 1   
    33    14    15 1   
    34    14    47 1   
    35    14    48 1   
    36    15    16 2   
    37    15    49 1   
    38    16    17 1   
    39    16    50 1   
    40    17    18 1   
    41    17    51 1   
    42    17    52 1   
    43    18    19 3   
    44    19    20 1   
    45    20    21 2   
    46    20    22 1   
    47    22    23 1   
    48    22    53 1   
    49    22    54 1   
    50    23    24 1   
    51    23    55 1   
    52    23    56 1   
    53    24    25 1   
    54    24    57 1   
    55    24    58 1   
    56    25    26 1   
    57    25    27 1   
@<TRIPOS>SUBSTRUCTURE
     1 EJL         1 TEMP              0 ****  ****    0 ROOT
