@<TRIPOS>MOLECULE
EJM
   21    20     1     0     0
SMALL
No Charge or Current Charge


@<TRIPOS>ATOM
      1 CE           5.6660     2.6190    18.9620 c3         1 EJM      -0.088100
      2 CD           5.8040     1.1360    18.5640 c3         1 EJM      -0.077400
      3 CG           6.8160     0.3650    19.4400 c3         1 EJM      -0.069400
      4 CB           6.9520    -1.1250    19.0390 c3         1 EJM      -0.063400
      5 CA           7.9190    -1.9440    19.9350 c3         1 EJM       0.052500
      6 C            7.7540    -3.4760    19.6670 c          1 EJM       0.529900
      7 N            9.3280    -1.4230    19.8230 n8         1 EJM      -1.000200
      8 O            7.8310    -4.3310    20.5430 o          1 EJM      -0.499100
      9 HE3          4.9390     3.1230    18.3140 hc         1 EJM       0.032367
     10 HE1          5.3230     2.7120    20.0000 hc         1 EJM       0.032367
     11 HE2          6.6280     3.1370    18.8670 hc         1 EJM       0.032367
     12 HD3          4.8200     0.6560    18.6350 hc         1 EJM       0.035200
     13 HD2          6.1140     1.0770    17.5130 hc         1 EJM       0.035200
     14 HG3          7.7950     0.8560    19.3680 hc         1 EJM       0.049700
     15 HG2          6.5040     0.4280    20.4900 hc         1 EJM       0.049700
     16 HB2          5.9570    -1.5850    19.0870 hc         1 EJM       0.041200
     17 HB3          7.2760    -1.1930    17.9920 hc         1 EJM       0.041200
     18 HA           7.5940    -1.8020    20.9770 h1         1 EJM       0.086700
     19 H            9.9510    -1.9680    20.4350 hn         1 EJM       0.403000
     20 HN2          9.6960    -1.6070    18.8800 hn         1 EJM       0.403000
     21 H2           7.5970    -3.7630    18.6030 h4         1 EJM      -0.026800
@<TRIPOS>BOND
     1     1     2 1   
     2     1     9 1   
     3     1    10 1   
     4     1    11 1   
     5     2     3 1   
     6     2    12 1   
     7     2    13 1   
     8     3     4 1   
     9     3    14 1   
    10     3    15 1   
    11     4     5 1   
    12     4    16 1   
    13     4    17 1   
    14     5     6 1   
    15     5     7 1   
    16     5    18 1   
    17     6     8 2   
    18     6    21 1   
    19     7    19 1   
    20     7    20 1   
@<TRIPOS>SUBSTRUCTURE
     1 EJM         1 TEMP              0 ****  ****    0 ROOT
