@<TRIPOS>MOLECULE
EJM
   21    20     1     0     0
SMALL
bcc


@<TRIPOS>ATOM
      1 CE           5.7280     2.5670    18.9220 c3         1 EJM      -0.088100
      2 CD           5.7880     1.0770    18.6130 c3         1 EJM      -0.077400
      3 CG           6.8370     0.3450    19.4410 c3         1 EJM      -0.069400
      4 CB           6.8970    -1.1420    19.1160 c3         1 EJM      -0.063400
      5 CA           7.8820    -1.9250    19.9870 c3         1 EJM       0.052500
      6 C            7.8230    -3.3800    19.5840 c          1 EJM       0.529900
      7 N            9.2300    -1.3990    19.8550 n8         1 EJM      -0.889800
      8 O            7.3270    -4.2710    20.2270 o          1 EJM      -0.499100
      9 HE3          4.9680     3.0690    18.3230 hc         1 EJM       0.032367
     10 HE1          5.4890     2.7420    19.9720 hc         1 EJM       0.032367
     11 HE2          6.6840     3.0520    18.7160 hc         1 EJM       0.032367
     12 HD3          4.8070     0.6270    18.7890 hc         1 EJM       0.035200
     13 HD2          6.0010     0.9320    17.5490 hc         1 EJM       0.035200
     14 HG3          7.8160     0.8010    19.2720 hc         1 EJM       0.049700
     15 HG2          6.6170     0.4760    20.5060 hc         1 EJM       0.049700
     16 HB2          5.9010    -1.5790    19.2410 hc         1 EJM       0.041200
     17 HB3          7.1610    -1.2780    18.0610 hc         1 EJM       0.041200
     18 HA           7.5750    -1.8430    21.0340 h1         1 EJM       0.086700
     19 H            9.8800    -1.9250    20.4250 hn         1 EJM       0.347800
     20 HN2          9.5510    -1.4730    18.8960 hn         1 EJM       0.347800
     21 H2           8.3020    -3.5820    18.6040 h4         1 EJM      -0.026800
@<TRIPOS>BOND
     1     1     2 1   
     2     1     9 1   
     3     1    10 1   
     4     1    11 1   
     5     2     3 1   
     6     2    12 1   
     7     2    13 1   
     8     3     4 1   
     9     3    14 1   
    10     3    15 1   
    11     4     5 1   
    12     4    16 1   
    13     4    17 1   
    14     5     6 1   
    15     5     7 1   
    16     5    18 1   
    17     6     8 2   
    18     6    21 1   
    19     7    19 1   
    20     7    20 1   
@<TRIPOS>SUBSTRUCTURE
     1 EJM         1 TEMP              0 ****  ****    0 ROOT
