@<TRIPOS>MOLECULE
EJN
   44    46     1     0     0
SMALL
abcg2


@<TRIPOS>ATOM
      1 O3           6.5620     1.4690    -0.8250 oh         1 EJN      -0.650000
      2 C4           5.5430    -0.6240    -0.3820 c6         1 EJN       0.146300
      3 C5           4.2100    -1.3170    -0.0890 c6         1 EJN       0.172300
      4 O4           6.0910    -1.2330    -1.5260 oh         1 EJN      -0.722000
      5 C6           4.4090    -2.7610     0.3220 c3         1 EJN       0.169600
      6 O5           3.5320    -0.6710     0.9800 os         1 EJN      -0.445000
      7 O6           3.1480    -3.3710     0.4660 oh         1 EJN      -0.712000
      8 C1           3.2790     0.6820     0.8210 c6         1 EJN       0.358300
      9 C2           4.5640     1.4780     0.5720 c6         1 EJN       0.124300
     10 C3           5.3090     0.8650    -0.6110 c6         1 EJN       0.142300
     11 CAA          1.0990     0.7200    -0.1710 ca         1 EJN       0.158100
     12 CAB          0.3090     1.3060    -1.1590 ca         1 EJN      -0.161000
     13 CAC         -1.0640     1.1530    -1.1340 ca         1 EJN      -0.046500
     14 CAD         -1.6780     0.4140    -0.1250 cp         1 EJN      -0.088000
     15 CAE         -0.8820    -0.1790     0.8470 ca         1 EJN      -0.046500
     16 CAF          0.4990    -0.0400     0.8290 ca         1 EJN      -0.161000
     17 CAG         -3.1480     0.2730    -0.0890 cp         1 EJN      -0.076000
     18 CAH         -3.7650    -0.9610    -0.2270 ca         1 EJN       0.178500
     19 CAI         -5.1400    -1.0980    -0.1960 ca         1 EJN       0.094500
     20 CAJ         -5.9340     0.0210    -0.0270 ca         1 EJN       0.142000
     21 CAK         -5.3480     1.2650     0.1120 ca         1 EJN       0.094500
     22 CAL         -3.9710     1.3770     0.0810 ca         1 EJN       0.178500
     23 FAH         -3.0270    -2.0520    -0.4100 f          1 EJN      -0.139000
     24 FAI         -5.7050    -2.2930    -0.3370 f          1 EJN      -0.134500
     25 FAJ         -7.2540    -0.0990     0.0040 f          1 EJN      -0.132000
     26 FAK         -6.1090     2.3410     0.2830 f          1 EJN      -0.134500
     27 FAL         -3.4330     2.5830     0.2320 f          1 EJN      -0.139000
     28 O1           2.4280     0.9490    -0.2700 os         1 EJN      -0.385100
     29 O2           5.3910     1.4110     1.7030 oh         1 EJN      -0.688000
     30 H32          6.4330     2.2830    -1.3190 ho         1 EJN       0.449000
     31 H41          6.2070    -0.7530     0.4860 h1         1 EJN       0.069700
     32 H5           3.5990    -1.2910    -1.0010 h1         1 EJN       0.072700
     33 H42          6.9130    -0.7780    -1.7380 ho         1 EJN       0.523000
     34 H61          5.0130    -3.2560    -0.4460 h1         1 EJN       0.037700
     35 H62          4.9870    -2.7890     1.2560 h1         1 EJN       0.037700
     36 H63          3.2920    -4.3010     0.6620 ho         1 EJN       0.504000
     37 H1           2.8050     1.0100     1.7540 h2         1 EJN       0.078700
     38 H21          4.2900     2.5150     0.3360 h1         1 EJN       0.050700
     39 H31          4.6730     0.9690    -1.5000 h1         1 EJN       0.061700
     40 HAB          0.7780     1.8870    -1.9420 ha         1 EJN       0.134500
     41 HAC         -1.6590     1.6110    -1.9140 ha         1 EJN       0.120000
     42 HAE         -1.3360    -0.7550     1.6430 ha         1 EJN       0.120000
     43 HAF          1.0810    -0.5370     1.5920 ha         1 EJN       0.134500
     44 H22          5.0110     1.9590     2.3970 ho         1 EJN       0.505000
@<TRIPOS>BOND
     1     1    10 1   
     2     1    30 1   
     3     2     3 1   
     4     2     4 1   
     5     2    10 1   
     6     2    31 1   
     7     3     5 1   
     8     3     6 1   
     9     3    32 1   
    10     4    33 1   
    11     5     7 1   
    12     5    34 1   
    13     5    35 1   
    14     6     8 1   
    15     7    36 1   
    16     8     9 1   
    17     8    28 1   
    18     8    37 1   
    19     9    10 1   
    20     9    29 1   
    21     9    38 1   
    22    10    39 1   
    23    11    12 ar  
    24    11    16 ar  
    25    11    28 1   
    26    12    13 ar  
    27    12    40 1   
    28    13    14 ar  
    29    13    41 1   
    30    14    15 ar  
    31    14    17 1   
    32    15    16 ar  
    33    15    42 1   
    34    16    43 1   
    35    17    18 ar  
    36    17    22 ar  
    37    18    19 ar  
    38    18    23 1   
    39    19    20 ar  
    40    19    24 1   
    41    20    21 ar  
    42    20    25 1   
    43    21    22 ar  
    44    21    26 1   
    45    22    27 1   
    46    29    44 1   
@<TRIPOS>SUBSTRUCTURE
     1 EJN         1 TEMP              0 ****  ****    0 ROOT
