@<TRIPOS>MOLECULE
EJN
   44    46     1     0     0
SMALL
No Charge or Current Charge


@<TRIPOS>ATOM
      1 O3           6.7690     1.3930    -0.8270 oh         1 EJN      -0.650000
      2 C4           5.4470    -0.6620    -0.5350 c6         1 EJN       0.146300
      3 C5           4.0120    -1.1880    -0.2180 c6         1 EJN       0.172300
      4 O4           5.9710    -1.2190    -1.7580 oh         1 EJN      -0.722000
      5 C6           3.9850    -2.7370     0.0010 c3         1 EJN       0.169600
      6 O5           3.4960    -0.5470     0.9830 os         1 EJN      -0.445000
      7 O6           2.6790    -3.2490     0.3430 oh         1 EJN      -0.712000
      8 C1           3.4020     0.8960     0.9050 c6         1 EJN       0.358300
      9 C2           4.8230     1.5200     0.6630 c6         1 EJN       0.124300
     10 C3           5.4330     0.8960    -0.6290 c6         1 EJN       0.142300
     11 CAA          1.1450     0.9870    -0.0880 ca         1 EJN       0.158100
     12 CAB          0.3590     1.3260    -1.2000 ca         1 EJN      -0.161000
     13 CAC         -1.0230     1.0750    -1.2020 ca         1 EJN      -0.046500
     14 CAD         -1.6550     0.4770    -0.0850 cp         1 EJN      -0.088000
     15 CAE         -0.8520     0.1410     1.0320 ca         1 EJN      -0.046500
     16 CAF          0.5310     0.3930     1.0360 ca         1 EJN      -0.161000
     17 CAG         -3.1290     0.2090    -0.0840 cp         1 EJN      -0.076000
     18 CAH         -3.6430    -1.0780     0.2360 ca         1 EJN       0.178500
     19 CAI         -5.0280    -1.3290     0.2360 ca         1 EJN       0.094500
     20 CAJ         -5.9290    -0.3010    -0.0830 ca         1 EJN       0.142000
     21 CAK         -5.4480     0.9790    -0.4030 ca         1 EJN       0.094500
     22 CAL         -4.0630     1.2320    -0.4050 ca         1 EJN       0.178500
     23 FAH         -2.7950    -2.0940     0.5270 f          1 EJN      -0.139000
     24 FAI         -5.4920    -2.5650     0.5400 f          1 EJN      -0.134500
     25 FAJ         -7.2620    -0.5440    -0.0830 f          1 EJN      -0.132000
     26 FAK         -6.3190     1.9720    -0.7070 f          1 EJN      -0.134500
     27 FAL         -3.6280     2.4810    -0.6950 f          1 EJN      -0.139000
     28 O1           2.4950     1.2700    -0.1550 os         1 EJN      -0.385100
     29 O2           5.7350     1.2920     1.7710 oh         1 EJN      -0.688000
     30 H32          7.1140     1.5350     0.0860 ho         1 EJN       0.449000
     31 H41          6.0970    -0.9470     0.3070 h1         1 EJN       0.069700
     32 H5           3.3460    -0.9570    -1.0620 h1         1 EJN       0.072700
     33 H42          6.7070    -0.6140    -2.0220 ho         1 EJN       0.523000
     34 H61          4.3430    -3.2190    -0.9190 h1         1 EJN       0.037700
     35 H62          4.7040    -2.9810     0.7950 h1         1 EJN       0.037700
     36 H63          2.7850    -4.2120     0.5220 ho         1 EJN       0.504000
     37 H1           3.0150     1.2880     1.8580 h2         1 EJN       0.078700
     38 H21          4.6970     2.6000     0.5000 h1         1 EJN       0.050700
     39 H31          4.8000     1.1840    -1.4820 h1         1 EJN       0.061700
     40 HAB          0.8260     1.7850    -2.0670 ha         1 EJN       0.134500
     41 HAC         -1.6100     1.3390    -2.0790 ha         1 EJN       0.120000
     42 HAE         -1.3100    -0.3120     1.9090 ha         1 EJN       0.120000
     43 HAF          1.1040     0.1180     1.9160 ha         1 EJN       0.134500
     44 H22          5.3680     1.7550     2.5610 ho         1 EJN       0.505000
@<TRIPOS>BOND
     1     1    10 1   
     2     1    30 1   
     3     2     3 1   
     4     2     4 1   
     5     2    10 1   
     6     2    31 1   
     7     3     5 1   
     8     3     6 1   
     9     3    32 1   
    10     4    33 1   
    11     5     7 1   
    12     5    34 1   
    13     5    35 1   
    14     6     8 1   
    15     7    36 1   
    16     8     9 1   
    17     8    28 1   
    18     8    37 1   
    19     9    10 1   
    20     9    29 1   
    21     9    38 1   
    22    10    39 1   
    23    11    12 ar  
    24    11    16 ar  
    25    11    28 1   
    26    12    13 ar  
    27    12    40 1   
    28    13    14 ar  
    29    13    41 1   
    30    14    15 ar  
    31    14    17 1   
    32    15    16 ar  
    33    15    42 1   
    34    16    43 1   
    35    17    18 ar  
    36    17    22 ar  
    37    18    19 ar  
    38    18    23 1   
    39    19    20 ar  
    40    19    24 1   
    41    20    21 ar  
    42    20    25 1   
    43    21    22 ar  
    44    21    26 1   
    45    22    27 1   
    46    29    44 1   
@<TRIPOS>SUBSTRUCTURE
     1 EJN         1 TEMP              0 ****  ****    0 ROOT
