@<TRIPOS>MOLECULE
EJO
   31    32     1     0     0
SMALL
bcc


@<TRIPOS>ATOM
      1 CBF          3.7680     0.6760     0.1540 cc         1 EJO      -0.302200
      2 CAQ          2.7830     1.5940     0.2570 cd         1 EJO       0.008800
      3 CBG          3.4550    -0.7200    -0.0270 c          1 EJO       0.750800
      4 OAE          4.2480    -1.6270    -0.1260 o          1 EJO      -0.570500
      5 OBB          2.1340    -1.0500    -0.0900 os         1 EJO      -0.346200
      6 CBI          1.1270    -0.1480     0.0120 ca         1 EJO       0.229100
      7 CAP         -0.1620    -0.6340    -0.0570 ca         1 EJO      -0.263000
      8 CBH          1.4160     1.2070     0.1900 ca         1 EJO      -0.230800
      9 CAN          0.3250     2.0820     0.2910 ca         1 EJO      -0.020000
     10 CAM         -0.9670     1.6300     0.2240 ca         1 EJO      -0.243000
     11 CBE         -1.2540     0.2470     0.0550 ca         1 EJO       0.265600
     12 NBP         -2.5300    -0.2070     0.0050 nh         1 EJO      -0.683000
     13 CAS         -2.8380    -1.5860    -0.3310 c3         1 EJO       0.224300
     14 CAB         -2.8280    -2.5260     0.8660 c3         1 EJO      -0.116100
     15 CAR         -3.6710     0.6610     0.2360 c3         1 EJO       0.224300
     16 CAA         -4.1900     1.3230    -1.0320 c3         1 EJO      -0.116100
     17 H1           4.8130     0.9470     0.2050 ha         1 EJO       0.161000
     18 H2           3.0250     2.6410     0.3950 ha         1 EJO       0.136000
     19 H3          -0.3000    -1.6990    -0.1780 ha         1 EJO       0.156000
     20 H4           0.5100     3.1410     0.4160 ha         1 EJO       0.131000
     21 H5          -1.7660     2.3540     0.2840 ha         1 EJO       0.136000
     22 H6          -3.8280    -1.5940    -0.7890 h1         1 EJO       0.050950
     23 H7          -2.1570    -1.9400    -1.1060 h1         1 EJO       0.050950
     24 H8          -3.1020    -3.5330     0.5510 hc         1 EJO       0.043867
     25 H9          -1.8450    -2.5790     1.3360 hc         1 EJO       0.043867
     26 H10         -3.5450    -2.2070     1.6230 hc         1 EJO       0.043867
     27 H11         -4.4600     0.0500     0.6790 h1         1 EJO       0.050950
     28 H12         -3.4260     1.4090     0.9900 h1         1 EJO       0.050950
     29 H13         -3.4390     1.9720    -1.4840 hc         1 EJO       0.043867
     30 H14         -4.4790     0.5770    -1.7730 hc         1 EJO       0.043867
     31 H15         -5.0690     1.9290    -0.8090 hc         1 EJO       0.043867
@<TRIPOS>BOND
     1     1     2 2   
     2     1     3 1   
     3     1    17 1   
     4     2     8 1   
     5     2    18 1   
     6     3     4 2   
     7     3     5 1   
     8     5     6 1   
     9     6     7 ar  
    10     6     8 ar  
    11     7    11 ar  
    12     7    19 1   
    13     8     9 ar  
    14     9    10 ar  
    15     9    20 1   
    16    10    11 ar  
    17    10    21 1   
    18    11    12 1   
    19    12    13 1   
    20    12    15 1   
    21    13    14 1   
    22    13    22 1   
    23    13    23 1   
    24    14    24 1   
    25    14    25 1   
    26    14    26 1   
    27    15    16 1   
    28    15    27 1   
    29    15    28 1   
    30    16    29 1   
    31    16    30 1   
    32    16    31 1   
@<TRIPOS>SUBSTRUCTURE
     1 EJO         1 TEMP              0 ****  ****    0 ROOT
