@<TRIPOS>MOLECULE
EJO
   31    32     1     0     0
SMALL
No Charge or Current Charge


@<TRIPOS>ATOM
      1 CBF          3.8880     0.7230     0.2380 cc         1 EJO      -0.352200
      2 CAQ          2.8960     1.6580     0.0680 cd         1 EJO      -0.041200
      3 CBG          3.5880    -0.7100     0.3910 c          1 EJO       0.675300
      4 OAE          4.4650    -1.5460     0.5430 o          1 EJO      -0.495000
      5 OBB          2.2610    -1.0570     0.3540 os         1 EJO      -0.346200
      6 CBI          1.2360    -0.1580     0.1850 ca         1 EJO       0.229100
      7 CAP         -0.0820    -0.6250     0.1620 ca         1 EJO      -0.245000
      8 CBH          1.5090     1.2100     0.0390 ca         1 EJO      -0.230800
      9 CAN          0.4490     2.1150    -0.1300 ca         1 EJO      -0.002000
     10 CAM         -0.8730     1.6410    -0.1510 ca         1 EJO      -0.225000
     11 CBE         -1.1540     0.2670    -0.0060 ca         1 EJO       0.404000
     12 NBP         -2.4930    -0.2060    -0.0280 nh         1 EJO      -0.821400
     13 CAS         -2.8320    -1.5430    -0.5730 c3         1 EJO       0.224300
     14 CAB         -3.0960    -2.6070     0.5090 c3         1 EJO      -0.116100
     15 CAR         -3.6120     0.6180     0.4910 c3         1 EJO       0.224300
     16 CAA         -4.4530     1.2900    -0.6100 c3         1 EJO      -0.116100
     17 H1           4.9380     0.9890     0.2690 ha         1 EJO       0.211000
     18 H2           3.1460     2.7120    -0.0420 ha         1 EJO       0.186000
     19 H3          -0.2600    -1.6860     0.2880 ha         1 EJO       0.138000
     20 H4           0.6450     3.1790    -0.2460 ha         1 EJO       0.113000
     21 H5          -1.6770     2.3540    -0.2930 ha         1 EJO       0.118000
     22 H6          -3.7220    -1.4690    -1.2130 h1         1 EJO       0.050950
     23 H7          -2.0230    -1.8980    -1.2270 h1         1 EJO       0.050950
     24 H8          -3.2990    -3.5770     0.0410 hc         1 EJO       0.043867
     25 H9          -2.2290    -2.7190     1.1690 hc         1 EJO       0.043867
     26 H10         -3.9640    -2.3360     1.1200 hc         1 EJO       0.043867
     27 H11         -4.2770    -0.0040     1.1050 h1         1 EJO       0.050950
     28 H12         -3.2250     1.3960     1.1640 h1         1 EJO       0.050950
     29 H13         -3.8290     1.9270    -1.2470 hc         1 EJO       0.043867
     30 H14         -4.9400     0.5400    -1.2430 hc         1 EJO       0.043867
     31 H15         -5.2340     1.9140    -0.1610 hc         1 EJO       0.043867
@<TRIPOS>BOND
     1     1     2 2   
     2     1     3 1   
     3     1    17 1   
     4     2     8 1   
     5     2    18 1   
     6     3     4 2   
     7     3     5 1   
     8     5     6 1   
     9     6     7 ar  
    10     6     8 ar  
    11     7    11 ar  
    12     7    19 1   
    13     8     9 ar  
    14     9    10 ar  
    15     9    20 1   
    16    10    11 ar  
    17    10    21 1   
    18    11    12 1   
    19    12    13 1   
    20    12    15 1   
    21    13    14 1   
    22    13    22 1   
    23    13    23 1   
    24    14    24 1   
    25    14    25 1   
    26    14    26 1   
    27    15    16 1   
    28    15    27 1   
    29    15    28 1   
    30    16    29 1   
    31    16    30 1   
    32    16    31 1   
@<TRIPOS>SUBSTRUCTURE
     1 EJO         1 TEMP              0 ****  ****    0 ROOT
