@<TRIPOS>MOLECULE
EJP
   53    57     1     0     0
SMALL
No Charge or Current Charge


@<TRIPOS>ATOM
      1 N1          -8.8500     2.4550     0.6110 n1         1 EJP      -0.445000
      2 N3           3.8290     0.5920    -0.9690 na         1 EJP       0.142800
      3 C4           6.4920    -2.3160     0.9210 ca         1 EJP      -0.112000
      4 C5          -6.6340    -0.1170     1.5920 ca         1 EJP      -0.059000
      5 C6           7.3760     0.1580    -0.0730 ca         1 EJP      -0.085000
      6 C7           5.6770    -1.5800     0.0440 ca         1 EJP      -0.085000
      7 C8          -5.5690    -1.0350     1.5330 ca         1 EJP      -0.138000
      8 C10         -6.8810     0.7530     0.5130 ca         1 EJP      -0.023000
      9 C13         -4.7640    -1.1310     0.3770 ca         1 EJP      -0.035000
     10 C15          1.7230     0.2910    -0.9650 cc         1 EJP       0.190500
     11 C17          0.3100    -0.1340    -1.2560 c          1 EJP       0.512500
     12 C20         -0.3660     1.6850     0.3770 c6         1 EJP       0.118000
     13 C21         -2.8590     0.3810    -1.7040 c3         1 EJP       0.152600
     14 C22         -2.1010    -0.0300    -0.4120 c3         1 EJP       0.013700
     15 C24          5.2300     0.4750    -1.4070 c3         1 EJP       0.131900
     16 C1          -7.9700     1.6890     0.5710 cg         1 EJP       0.322000
     17 C2           7.7480    -1.8170     1.3030 ca         1 EJP      -0.096000
     18 C3           8.1890    -0.5800     0.8040 ca         1 EJP      -0.112000
     19 C9          -6.0370     0.7150    -0.6120 ca         1 EJP      -0.069000
     20 C11          2.0210     1.0930     0.1510 cc         1 EJP      -0.160300
     21 C12          6.1120    -0.3350    -0.4560 ca         1 EJP      -0.127300
     22 C14         -4.9680    -0.1940    -0.6550 ca         1 EJP       0.072100
     23 C16          3.3620     1.2950     0.1480 cd         1 EJP       0.044000
     24 C18         -2.2890    -1.5240     0.0050 c          1 EJP       0.568000
     25 C19          0.9740     1.5540     1.1260 c6         1 EJP      -0.003100
     26 N2           2.8010    -0.0430    -1.6640 nd         1 EJP      -0.438800
     27 N4          -3.5860    -1.9640     0.3910 n          1 EJP      -0.230400
     28 N5          -0.6830     0.4730    -0.4290 n          1 EJP      -0.412800
     29 O1           0.0120    -0.9250    -2.1460 o          1 EJP      -0.514000
     30 O2          -1.3330    -2.2910     0.0800 o          1 EJP      -0.500000
     31 O3          -4.1580    -0.2260    -1.7570 os         1 EJP      -0.335100
     32 Cl1          4.3360     2.1860     1.2770 cl         1 EJP      -0.125000
     33 H1           6.1500    -3.2750     1.3050 ha         1 EJP       0.117000
     34 H2          -7.2590    -0.0760     2.4820 ha         1 EJP       0.131000
     35 H3           7.7290     1.1160    -0.4510 ha         1 EJP       0.121500
     36 H4           4.7070    -1.9810    -0.2450 ha         1 EJP       0.121500
     37 H5          -5.3780    -1.6740     2.3920 ha         1 EJP       0.129000
     38 H6          -1.1640     1.8890     1.1050 h1         1 EJP       0.045700
     39 H7          -0.3160     2.5480    -0.3010 h1         1 EJP       0.045700
     40 H8          -2.9470     1.4740    -1.7270 h1         1 EJP       0.076200
     41 H9          -2.2830     0.0820    -2.5880 h1         1 EJP       0.076200
     42 H10         -2.6060     0.5120     0.3960 h1         1 EJP       0.065700
     43 H11          5.2490     0.0050    -2.3980 h1         1 EJP       0.080200
     44 H12          5.6330     1.4880    -1.5180 h1         1 EJP       0.080200
     45 H13          8.3780    -2.3870     1.9820 ha         1 EJP       0.115000
     46 H14          9.1620    -0.1920     1.0980 ha         1 EJP       0.117000
     47 H15         -6.1990     1.3950    -1.4460 ha         1 EJP       0.142000
     48 H16          1.2410     2.5160     1.5840 hc         1 EJP       0.066700
     49 H17          0.8680     0.8300     1.9460 hc         1 EJP       0.066700
     50 H18         -3.2120    -4.0540     0.2930 h1         1 EJP       0.050033
     51 H19         -3.2670    -3.3690     1.9470 h1         1 EJP       0.050033
     52 H20         -4.7750    -3.6150     1.0180 h1         1 EJP       0.050033
     53 C23         -3.7170    -3.3320     0.9470 c3         1 EJP       0.090300
@<TRIPOS>BOND
     1     1    16 3   
     2     2    15 1   
     3     2    23 1   
     4     2    26 1   
     5     3     6 ar  
     6     3    17 ar  
     7     3    33 1   
     8     4     7 ar  
     9     4     8 ar  
    10     4    34 1   
    11     5    18 ar  
    12     5    21 ar  
    13     5    35 1   
    14     6    21 ar  
    15     6    36 1   
    16     7     9 ar  
    17     7    37 1   
    18     8    16 1   
    19     8    19 ar  
    20     9    22 ar  
    21     9    27 1   
    22    10    11 1   
    23    10    20 1   
    24    10    26 2   
    25    11    28 1   
    26    11    29 2   
    27    12    25 1   
    28    12    28 1   
    29    12    38 1   
    30    12    39 1   
    31    13    14 1   
    32    13    31 1   
    33    13    40 1   
    34    13    41 1   
    35    14    24 1   
    36    14    28 1   
    37    14    42 1   
    38    15    21 1   
    39    15    43 1   
    40    15    44 1   
    41    17    18 ar  
    42    17    45 1   
    43    18    46 1   
    44    19    22 ar  
    45    19    47 1   
    46    20    23 2   
    47    20    25 1   
    48    22    31 1   
    49    23    32 1   
    50    24    27 1   
    51    24    30 2   
    52    25    48 1   
    53    25    49 1   
    54    27    53 1   
    55    50    53 1   
    56    51    53 1   
    57    52    53 1   
@<TRIPOS>SUBSTRUCTURE
     1 EJP         1 TEMP              0 ****  ****    0 ROOT
