@<TRIPOS>MOLECULE
EJP
   53    57     1     0     0
SMALL
bcc


@<TRIPOS>ATOM
      1 N1          -8.9010     1.9940    -0.1890 n1         1 EJP      -0.355800
      2 N3           3.7450     0.7920    -0.8880 na         1 EJP       0.121400
      3 C4           6.2300    -2.5610     0.2770 ca         1 EJP      -0.130000
      4 C5          -6.6000    -0.1460     1.3260 ca         1 EJP      -0.077000
      5 C6           7.0720     0.0700     0.0420 ca         1 EJP      -0.103000
      6 C7           5.4860    -1.6580    -0.4670 ca         1 EJP      -0.103000
      7 C8          -5.4650    -0.9150     1.4950 ca         1 EJP      -0.156000
      8 C10         -6.7900     0.5470     0.1320 ca         1 EJP      -0.023000
      9 C13         -4.5120    -1.0070     0.4830 ca         1 EJP       0.057600
     10 C15          1.6800     0.4660    -0.7200 cc         1 EJP       0.255800
     11 C17          0.3260    -0.0590    -0.9590 c          1 EJP       0.655000
     12 C20         -0.3530     1.7530     0.5830 c6         1 EJP       0.118000
     13 C21         -2.6250     0.2270    -1.6050 c3         1 EJP       0.129400
     14 C22         -1.9900     0.0470    -0.2150 c3         1 EJP       0.013700
     15 C24          5.0940     0.6440    -1.4010 c3         1 EJP       0.102600
     16 C1          -7.9580     1.3470    -0.0470 cg         1 EJP       0.232800
     17 C2           7.4010    -2.1510     0.9030 ca         1 EJP      -0.114000
     18 C3           7.8230    -0.8350     0.7820 ca         1 EJP      -0.130000
     19 C9          -5.8480     0.4640    -0.8910 ca         1 EJP      -0.087000
     20 C11          2.0100     1.2780     0.3680 cc         1 EJP      -0.225600
     21 C12          5.9020    -0.3350    -0.5890 ca         1 EJP      -0.127300
     22 C14         -4.7260    -0.3230    -0.7190 ca         1 EJP       0.072100
     23 C16          3.3580     1.4590     0.2260 cd         1 EJP       0.003100
     24 C18         -2.1060    -1.3670     0.3640 c          1 EJP       0.710500
     25 C19          0.9720     1.7150     1.3330 c6         1 EJP      -0.003100
     26 N2           2.7300     0.1720    -1.4680 nd         1 EJP      -0.438800
     27 N4          -3.3730    -1.8090     0.6370 n          1 EJP      -0.390000
     28 N5          -0.6250     0.5210    -0.1740 n          1 EJP      -0.479800
     29 O1           0.1070    -0.9470    -1.7640 o          1 EJP      -0.589500
     30 O2          -1.1360    -2.0340     0.6500 o          1 EJP      -0.575500
     31 O3          -3.8450    -0.4830    -1.7340 os         1 EJP      -0.311900
     32 CL1          4.4460     2.3460     1.1790 cl         1 EJP      -0.033400
     33 H1           5.8990    -3.5880     0.3650 ha         1 EJP       0.135000
     34 H2          -7.3300    -0.0780     2.1200 ha         1 EJP       0.149000
     35 H3           7.4020     1.0980    -0.0450 ha         1 EJP       0.139500
     36 H4           4.5760    -1.9880    -0.9540 ha         1 EJP       0.139500
     37 H5          -5.3180    -1.4420     2.4290 ha         1 EJP       0.147000
     38 H6          -1.1640     1.8940     1.2940 h1         1 EJP       0.045700
     39 H7          -0.3630     2.6110    -0.0950 h1         1 EJP       0.045700
     40 H8          -2.7810     1.2980    -1.7740 h1         1 EJP       0.076200
     41 H9          -1.9800    -0.1600    -2.3850 h1         1 EJP       0.076200
     42 H10         -2.5460     0.6870     0.4760 h1         1 EJP       0.065700
     43 H11          4.9890     0.3120    -2.4320 h1         1 EJP       0.080200
     44 H12          5.5740     1.6230    -1.4210 h1         1 EJP       0.080200
     45 H13          7.9810    -2.8560     1.4850 ha         1 EJP       0.133000
     46 H14          8.7330    -0.5090     1.2670 ha         1 EJP       0.135000
     47 H15         -5.9990     0.9850    -1.8280 ha         1 EJP       0.160000
     48 H16          1.1770     2.7060     1.7400 hc         1 EJP       0.066700
     49 H17          0.9160     1.0210     2.1760 hc         1 EJP       0.066700
     50 H18         -2.8690    -3.8310     0.8470 h1         1 EJP       0.050033
     51 H19         -3.2440    -3.0220     2.3740 h1         1 EJP       0.050033
     52 H20         -4.5380    -3.4290     1.2340 h1         1 EJP       0.050033
     53 C23         -3.5090    -3.0910     1.3190 c3         1 EJP       0.090300
@<TRIPOS>BOND
     1     1    16 3   
     2     2    15 1   
     3     2    23 1   
     4     2    26 1   
     5     3     6 ar  
     6     3    17 ar  
     7     3    33 1   
     8     4     7 ar  
     9     4     8 ar  
    10     4    34 1   
    11     5    18 ar  
    12     5    21 ar  
    13     5    35 1   
    14     6    21 ar  
    15     6    36 1   
    16     7     9 ar  
    17     7    37 1   
    18     8    16 1   
    19     8    19 ar  
    20     9    22 ar  
    21     9    27 1   
    22    10    11 1   
    23    10    20 1   
    24    10    26 2   
    25    11    28 1   
    26    11    29 2   
    27    12    25 1   
    28    12    28 1   
    29    12    38 1   
    30    12    39 1   
    31    13    14 1   
    32    13    31 1   
    33    13    40 1   
    34    13    41 1   
    35    14    24 1   
    36    14    28 1   
    37    14    42 1   
    38    15    21 1   
    39    15    43 1   
    40    15    44 1   
    41    17    18 ar  
    42    17    45 1   
    43    18    46 1   
    44    19    22 ar  
    45    19    47 1   
    46    20    23 2   
    47    20    25 1   
    48    22    31 1   
    49    23    32 1   
    50    24    27 1   
    51    24    30 2   
    52    25    48 1   
    53    25    49 1   
    54    27    53 1   
    55    50    53 1   
    56    51    53 1   
    57    52    53 1   
@<TRIPOS>SUBSTRUCTURE
     1 EJP         1 TEMP              0 ****  ****    0 ROOT
