@<TRIPOS>MOLECULE
EJQ
   31    32     1     0     0
SMALL
bcc


@<TRIPOS>ATOM
      1 C10          1.9830    -0.9260    -0.3230 c3         1 EJQ       0.091800
      2 C13          4.7930     1.2010     0.7150 c5         1 EJQ      -0.077900
      3 C15          4.3850    -0.8360    -0.5360 c5         1 EJQ       0.156800
      4 C01         -2.1800     0.8910    -0.2330 ca         1 EJQ      -0.143500
      5 C02         -3.5400     1.1710    -0.1960 ca         1 EJQ      -0.142000
      6 C03         -4.4270     0.1940     0.2030 ca         1 EJQ       0.106900
      7 C04         -3.9950    -1.0650     0.5720 ca         1 EJQ      -0.142000
      8 C05         -2.6390    -1.3410     0.5300 ca         1 EJQ      -0.143500
      9 C06         -1.7150    -0.3740     0.1290 ca         1 EJQ       0.060600
     10 C08          0.6990    -0.1150    -0.4190 c          1 EJQ       0.669100
     11 C12          3.3660     0.6690     0.8720 c5         1 EJQ       0.156800
     12 C14          5.4700     0.2010    -0.2480 c5         1 EJQ      -0.077900
     13 N07         -0.3670    -0.7450     0.1360 ns         1 EJQ      -0.480100
     14 N11          3.1500    -0.0950    -0.3450 n3         1 EJQ      -0.694600
     15 O09          0.6430     0.9680    -0.9690 o          1 EJQ      -0.551100
     16 H1           1.9500    -1.5850     0.5620 h1         1 EJQ       0.045700
     17 H2           1.9990    -1.5890    -1.1950 h1         1 EJQ       0.045700
     18 H3           4.7880     2.2050     0.2900 hc         1 EJQ       0.049700
     19 H4           5.3000     1.2620     1.6780 hc         1 EJQ       0.049700
     20 H5           4.4380    -1.2550    -1.5430 h1         1 EJQ       0.037450
     21 H6           4.4670    -1.6760     0.1750 h1         1 EJQ       0.037450
     22 H7          -1.4980     1.6680    -0.5380 ha         1 EJQ       0.149500
     23 H8          -3.8960     2.1530    -0.4780 ha         1 EJQ       0.150500
     24 H9          -4.7000    -1.8240     0.8840 ha         1 EJQ       0.150500
     25 H10         -2.2960    -2.3280     0.8170 ha         1 EJQ       0.149500
     26 H11          3.2980     0.0240     1.7640 h1         1 EJQ       0.037450
     27 H12          2.6250     1.4620     0.9820 h1         1 EJQ       0.037450
     28 H13          5.7800     0.6990    -1.1660 hc         1 EJQ       0.049700
     29 H14          6.3570    -0.2610     0.1830 hc         1 EJQ       0.049700
     30 H15         -0.1760    -1.6390     0.5630 hn         1 EJQ       0.313500
     31 F16         -5.7420     0.4720     0.2370 f          1 EJQ      -0.144900
@<TRIPOS>BOND
     1     1    10 1   
     2     1    14 1   
     3     1    16 1   
     4     1    17 1   
     5     2    11 1   
     6     2    12 1   
     7     2    18 1   
     8     2    19 1   
     9     3    12 1   
    10     3    14 1   
    11     3    20 1   
    12     3    21 1   
    13     4     5 ar  
    14     4     9 ar  
    15     4    22 1   
    16     5     6 ar  
    17     5    23 1   
    18     6     7 ar  
    19     6    31 1   
    20     7     8 ar  
    21     7    24 1   
    22     8     9 ar  
    23     8    25 1   
    24     9    13 1   
    25    10    13 1   
    26    10    15 2   
    27    11    14 1   
    28    11    26 1   
    29    11    27 1   
    30    12    28 1   
    31    12    29 1   
    32    13    30 1   
@<TRIPOS>SUBSTRUCTURE
     1 EJQ         1 TEMP              0 ****  ****    0 ROOT
