@<TRIPOS>MOLECULE
EJQ
   31    32     1     0     0
SMALL
No Charge or Current Charge


@<TRIPOS>ATOM
      1 C10          1.9790    -0.8230    -0.2970 c3         1 EJQ       0.091800
      2 C13          4.9970     1.2630     0.5570 c5         1 EJQ      -0.077900
      3 C15          4.4870    -0.9680    -0.3230 c5         1 EJQ       0.156800
      4 C01         -2.3490     0.9200    -0.1480 ca         1 EJQ      -0.125500
      5 C02         -3.7300     1.1750    -0.0470 ca         1 EJQ      -0.124000
      6 C03         -4.6170     0.1310     0.2510 ca         1 EJQ       0.142000
      7 C04         -4.1340    -1.1690     0.4510 ca         1 EJQ      -0.124000
      8 C05         -2.7550    -1.4270     0.3500 ca         1 EJQ      -0.125500
      9 C06         -1.8500    -0.3890     0.0480 ca         1 EJQ      -0.032000
     10 C08          0.6610     0.0090    -0.3750 c          1 EJQ       0.602100
     11 C12          3.5470     0.7890     0.8440 c5         1 EJQ       0.156800
     12 C14          5.6290     0.0790    -0.2430 c5         1 EJQ      -0.077900
     13 N07         -0.4700    -0.7270    -0.0340 ns         1 EJQ      -0.154000
     14 N11          3.2920    -0.1010    -0.3100 n3         1 EJQ      -0.694600
     15 O09          0.6330     1.1910    -0.7110 o          1 EJQ      -0.551100
     16 H1           1.9120    -1.4340     0.6140 h1         1 EJQ       0.045700
     17 H2           1.9420    -1.5230    -1.1410 h1         1 EJQ       0.045700
     18 H3           4.9980     2.1810    -0.0420 hc         1 EJQ       0.049700
     19 H4           5.5400     1.4810     1.4830 hc         1 EJQ       0.049700
     20 H5           4.5530    -1.5820    -1.2320 h1         1 EJQ       0.037450
     21 H6           4.5030    -1.6400     0.5470 h1         1 EJQ       0.037450
     22 H7          -1.6900     1.7520    -0.3740 ha         1 EJQ       0.131500
     23 H8          -4.1110     2.1820    -0.1980 ha         1 EJQ       0.132500
     24 H9          -4.8270    -1.9750     0.6830 ha         1 EJQ       0.132500
     25 H10         -2.3900    -2.4400     0.5070 ha         1 EJQ       0.131500
     26 H11          3.4920     0.2360     1.7930 h1         1 EJQ       0.037450
     27 H12          2.8440     1.6310     0.8970 h1         1 EJQ       0.037450
     28 H13          5.9310     0.4050    -1.2450 hc         1 EJQ       0.049700
     29 H14          6.5200    -0.3310     0.2460 hc         1 EJQ       0.049700
     30 H15         -0.2750    -1.6910     0.2040 hn         1 EJQ       0.147000
     31 F16         -5.9410     0.3800     0.3480 f          1 EJQ      -0.180000
@<TRIPOS>BOND
     1     1    10 1   
     2     1    14 1   
     3     1    16 1   
     4     1    17 1   
     5     2    11 1   
     6     2    12 1   
     7     2    18 1   
     8     2    19 1   
     9     3    12 1   
    10     3    14 1   
    11     3    20 1   
    12     3    21 1   
    13     4     5 ar  
    14     4     9 ar  
    15     4    22 1   
    16     5     6 ar  
    17     5    23 1   
    18     6     7 ar  
    19     6    31 1   
    20     7     8 ar  
    21     7    24 1   
    22     8     9 ar  
    23     8    25 1   
    24     9    13 1   
    25    10    13 1   
    26    10    15 2   
    27    11    14 1   
    28    11    26 1   
    29    11    27 1   
    30    12    28 1   
    31    12    29 1   
    32    13    30 1   
@<TRIPOS>SUBSTRUCTURE
     1 EJQ         1 TEMP              0 ****  ****    0 ROOT
