@<TRIPOS>MOLECULE
EJS
   64    68     1     0     0
SMALL
No Charge or Current Charge


@<TRIPOS>ATOM
      1 O01         -4.1550    -1.8750     0.8230 o          1 EJS      -0.558100
      2 C02         -3.2760    -1.3270     0.1700 c          1 EJS       0.605100
      3 C03         -2.1200    -2.1320    -0.4600 c6         1 EJS      -0.175700
      4 C04         -2.5630    -3.1010    -1.5780 c6         1 EJS       0.143700
      5 C05         -3.6170    -2.5080    -2.5470 c3         1 EJS      -0.112100
      6 N06         -3.0350    -4.3590    -0.9970 ns         1 EJS      -0.523900
      7 C07         -2.7040    -4.8560     0.2380 c          1 EJS       0.634000
      8 N08         -1.8020    -4.1270     0.9690 ns         1 EJS      -0.521900
      9 C09         -1.2510    -2.8140     0.6150 c6         1 EJS       0.196000
     10 C10          0.2180    -2.9500     0.1840 ca         1 EJS      -0.137300
     11 C11          1.1540    -1.9880     0.6160 ca         1 EJS      -0.065000
     12 C12          2.5180    -2.0620     0.2300 ca         1 EJS      -0.196600
     13 C13          3.5180    -1.0220     0.6900 c          1 EJS       0.623700
     14 N14          3.1160    -0.2060     1.7260 ns         1 EJS      -0.505900
     15 C15          3.9300     0.8960     2.2850 c3         1 EJS       0.077700
     16 C16          4.1500     2.0680     1.3530 cc         1 EJS       0.459300
     17 N17          5.2500     2.7820     1.2220 nd         1 EJS      -0.687000
     18 C18          4.8840     3.7090     0.2650 cd         1 EJS       0.562300
     19 C19          5.8190     4.7890    -0.2540 c3         1 EJS       0.134300
     20 O20          6.4850     4.3580    -1.4660 os         1 EJS      -0.429000
     21 C21          7.3930     5.3220    -2.0240 c3         1 EJS       0.142900
     22 N22          3.6320     3.5980    -0.1600 nc         1 EJS      -0.380300
     23 O23          3.1240     2.4980     0.5670 os         1 EJS      -0.093700
     24 O24          4.6160    -0.8690     0.1750 o          1 EJS      -0.557100
     25 C25          2.9160    -3.1290    -0.6100 ca         1 EJS       0.228000
     26 F26          4.2000    -3.2760    -1.0070 f          1 EJS      -0.157000
     27 C27          1.9860    -4.0870    -1.0410 ca         1 EJS      -0.161000
     28 C28          0.6430    -4.0020    -0.6500 ca         1 EJS      -0.042000
     29 O29         -3.1600    -5.9040     0.6480 o          1 EJS      -0.600000
     30 N30         -3.2200     0.0440    -0.0560 ns         1 EJS      -0.159000
     31 C31         -4.0770     1.1160     0.3240 ca         1 EJS      -0.050000
     32 C32         -3.6550     2.4260     0.0100 ca         1 EJS      -0.099000
     33 C33         -4.4820     3.4950     0.3710 ca         1 EJS      -0.130000
     34 C34         -4.3200     4.8940     0.1890 cc         1 EJS      -0.205100
     35 N35         -5.4540     5.4830     0.7430 na         1 EJS       0.016500
     36 N36         -6.3410     4.5340     1.2730 nc         1 EJS      -0.276400
     37 C37         -5.6830     3.3310     1.0110 ca         1 EJS      -0.077000
     38 C38         -6.1270     2.0400     1.3310 ca         1 EJS      -0.065000
     39 C39         -5.3220     0.9320     0.9850 ca         1 EJS      -0.093000
     40 H1          -1.4830    -1.3810    -0.9480 hc         1 EJS       0.072700
     41 H2          -1.6760    -3.3470    -2.1800 h1         1 EJS       0.048700
     42 H3          -3.2690    -1.5600    -2.9760 hc         1 EJS       0.050367
     43 H4          -3.8070    -3.1940    -3.3810 hc         1 EJS       0.050367
     44 H5          -4.5750    -2.3240    -2.0490 hc         1 EJS       0.050367
     45 H6          -3.6890    -4.9200    -1.5270 hn         1 EJS       0.335500
     46 H7          -1.5480    -4.5240     1.8640 hn         1 EJS       0.331500
     47 H8          -1.2750    -2.1970     1.5260 h1         1 EJS       0.062700
     48 H9           0.7980    -1.1720     1.2400 ha         1 EJS       0.119000
     49 H10          2.2080    -0.3940     2.1330 hn         1 EJS       0.327500
     50 H11          3.4420     1.2700     3.1940 h1         1 EJS       0.091700
     51 H12          4.9090     0.4980     2.5790 h1         1 EJS       0.091700
     52 H13          5.2340     5.6990    -0.4390 h1         1 EJS       0.046700
     53 H14          6.5550     5.0180     0.5270 h1         1 EJS       0.046700
     54 H15          8.1920     5.5640    -1.3120 h1         1 EJS       0.033700
     55 H16          7.8570     4.9270    -2.9360 h1         1 EJS       0.033700
     56 H17          6.8660     6.2500    -2.2840 h1         1 EJS       0.033700
     57 H18          2.3140    -4.9010    -1.6820 ha         1 EJS       0.142000
     58 H19         -0.0600    -4.7560    -0.9980 ha         1 EJS       0.137000
     59 H20         -2.4200     0.3400    -0.6000 hn         1 EJS       0.152000
     60 H21         -2.7100     2.6070    -0.4990 ha         1 EJS       0.117000
     61 H22         -3.5360     5.4920    -0.2630 h4         1 EJS       0.227000
     62 H23         -5.6670     6.4770     0.7860 hn         1 EJS       0.371000
     63 H24         -7.0790     1.8940     1.8370 ha         1 EJS       0.131000
     64 H25         -5.6890    -0.0580     1.2350 ha         1 EJS       0.131000
@<TRIPOS>BOND
     1     1     2 2   
     2     2     3 1   
     3     2    30 1   
     4     3     4 1   
     5     3     9 1   
     6     3    40 1   
     7     4     5 1   
     8     4     6 1   
     9     4    41 1   
    10     5    42 1   
    11     5    43 1   
    12     5    44 1   
    13     6     7 1   
    14     6    45 1   
    15     7     8 1   
    16     7    29 2   
    17     8     9 1   
    18     8    46 1   
    19     9    10 1   
    20     9    47 1   
    21    10    11 ar  
    22    10    28 ar  
    23    11    12 ar  
    24    11    48 1   
    25    12    13 1   
    26    12    25 ar  
    27    13    14 1   
    28    13    24 2   
    29    14    15 1   
    30    14    49 1   
    31    15    16 1   
    32    15    50 1   
    33    15    51 1   
    34    16    17 2   
    35    16    23 1   
    36    17    18 1   
    37    18    19 1   
    38    18    22 2   
    39    19    20 1   
    40    19    52 1   
    41    19    53 1   
    42    20    21 1   
    43    21    54 1   
    44    21    55 1   
    45    21    56 1   
    46    22    23 1   
    47    25    26 1   
    48    25    27 ar  
    49    27    28 ar  
    50    27    57 1   
    51    28    58 1   
    52    30    31 1   
    53    30    59 1   
    54    31    32 ar  
    55    31    39 ar  
    56    32    33 ar  
    57    32    60 1   
    58    33    34 2   
    59    33    37 ar  
    60    34    35 1   
    61    34    61 1   
    62    35    36 1   
    63    35    62 1   
    64    36    37 2   
    65    37    38 ar  
    66    38    39 ar  
    67    38    63 1   
    68    39    64 1   
@<TRIPOS>SUBSTRUCTURE
     1 EJS         1 TEMP              0 ****  ****    0 ROOT
