@<TRIPOS>MOLECULE
EJS
   64    68     1     0     0
SMALL
bcc


@<TRIPOS>ATOM
      1 O01         -3.6950    -1.2520     0.8150 o          1 EJS      -0.558100
      2 C02         -2.7690    -0.8930     0.1120 c          1 EJS       0.672100
      3 C03         -1.6890    -1.8460    -0.3640 c6         1 EJS      -0.175700
      4 C04         -2.1890    -2.7760    -1.4760 c6         1 EJS       0.143700
      5 C05         -2.8120    -2.0390    -2.6490 c3         1 EJS      -0.112100
      6 N06         -3.1410    -3.7060    -0.9160 ns         1 EJS      -0.590900
      7 C07         -3.0730    -4.2190     0.3320 c          1 EJS       0.843500
      8 N08         -2.0390    -3.7810     1.1000 ns         1 EJS      -0.588900
      9 C09         -1.1470    -2.6920     0.8030 c6         1 EJS       0.196000
     10 C10          0.2630    -3.1590     0.4940 ca         1 EJS      -0.137300
     11 C11          1.3180    -2.2720     0.6690 ca         1 EJS      -0.083000
     12 C12          2.6240    -2.6100     0.3330 ca         1 EJS      -0.196600
     13 C13          3.7150    -1.5990     0.4510 c          1 EJS       0.690700
     14 N14          3.7410    -0.9430     1.6230 ns         1 EJS      -0.572900
     15 C15          4.5490     0.2270     1.8200 c3         1 EJS       0.077700
     16 C16          4.0790     1.3870     1.0030 cc         1 EJS       0.503700
     17 N17          4.6970     2.4880     0.7480 nd         1 EJS      -0.687000
     18 C18          3.7750     3.1810     0.0170 cd         1 EJS       0.562300
     19 C19          4.0150     4.5560    -0.5110 c3         1 EJS       0.111100
     20 O20          5.2090     4.5340    -1.2410 os         1 EJS      -0.382600
     21 C21          5.5580     5.8080    -1.7270 c3         1 EJS       0.119700
     22 N22          2.6660     2.5360    -0.1690 nc         1 EJS      -0.380300
     23 O23          2.8580     1.3530     0.4910 os         1 EJS      -0.138100
     24 O24          4.4940    -1.3620    -0.4580 o          1 EJS      -0.557100
     25 C25          2.8500    -3.8780    -0.1810 ca         1 EJS       0.192900
     26 F26          4.1010    -4.2490    -0.4980 f          1 EJS      -0.121900
     27 C27          1.8320    -4.7930    -0.3390 ca         1 EJS      -0.179000
     28 C28          0.5360    -4.4260     0.0010 ca         1 EJS      -0.060000
     29 O29         -3.8790    -5.0450     0.7490 o          1 EJS      -0.675500
     30 N30         -2.6070     0.3850    -0.3120 ns         1 EJS      -0.485100
     31 C31         -3.4430     1.4690     0.0240 ca         1 EJS       0.042600
     32 C32         -2.8700     2.6580     0.3860 ca         1 EJS      -0.117000
     33 C33         -3.7210     3.7480     0.6660 ca         1 EJS      -0.130000
     34 C34         -3.5340     5.0740     1.0450 cc         1 EJS      -0.155100
     35 N35         -4.7640     5.5860     1.1550 na         1 EJS       0.066800
     36 N36         -5.7540     4.7490     0.8940 nc         1 EJS      -0.276400
     37 C37         -5.1340     3.6070     0.5900 ca         1 EJS      -0.077000
     38 C38         -5.7010     2.3700     0.2070 ca         1 EJS      -0.083000
     39 C39         -4.8620     1.3330    -0.0760 ca         1 EJS      -0.111000
     40 H1          -0.8550    -1.2790    -0.7840 hc         1 EJS       0.072700
     41 H2          -1.3090    -3.3120    -1.8520 h1         1 EJS       0.048700
     42 H3          -2.1010    -1.3410    -3.0870 hc         1 EJS       0.050367
     43 H4          -3.0970    -2.7480    -3.4280 hc         1 EJS       0.050367
     44 H5          -3.7070    -1.4880    -2.3580 hc         1 EJS       0.050367
     45 H6          -3.8690    -4.0700    -1.5100 hn         1 EJS       0.335500
     46 H7          -2.0330    -4.1270     2.0460 hn         1 EJS       0.331500
     47 H8          -1.0920    -2.0540     1.6900 h1         1 EJS       0.062700
     48 H9           1.1120    -1.2770     1.0480 ha         1 EJS       0.137000
     49 H10          3.0800    -1.1830     2.3430 hn         1 EJS       0.327500
     50 H11          4.4980     0.5000     2.8740 h1         1 EJS       0.091700
     51 H12          5.5990     0.0440     1.5910 h1         1 EJS       0.091700
     52 H13          3.1590     4.8680    -1.1210 h1         1 EJS       0.046700
     53 H14          4.0760     5.2480     0.3400 h1         1 EJS       0.046700
     54 H15          5.6860     6.5340    -0.9160 h1         1 EJS       0.033700
     55 H16          6.5040     5.7140    -2.2570 h1         1 EJS       0.033700
     56 H17          4.8070     6.2040    -2.4200 h1         1 EJS       0.033700
     57 H18          2.0460    -5.7840    -0.7160 ha         1 EJS       0.160000
     58 H19         -0.2610    -5.1470    -0.1220 ha         1 EJS       0.155000
     59 H20         -1.7440     0.6170    -0.7780 hn         1 EJS       0.318500
     60 H21         -1.7940     2.7590     0.4530 ha         1 EJS       0.135000
     61 H22         -2.6500     5.6600     1.2320 h4         1 EJS       0.177000
     62 H23         -4.9830     6.5370     1.4100 hn         1 EJS       0.320700
     63 H24         -6.7730     2.2530     0.1230 ha         1 EJS       0.149000
     64 H25         -5.2780     0.3910    -0.4020 ha         1 EJS       0.149000
@<TRIPOS>BOND
     1     1     2 2   
     2     2     3 1   
     3     2    30 1   
     4     3     4 1   
     5     3     9 1   
     6     3    40 1   
     7     4     5 1   
     8     4     6 1   
     9     4    41 1   
    10     5    42 1   
    11     5    43 1   
    12     5    44 1   
    13     6     7 1   
    14     6    45 1   
    15     7     8 1   
    16     7    29 2   
    17     8     9 1   
    18     8    46 1   
    19     9    10 1   
    20     9    47 1   
    21    10    11 ar  
    22    10    28 ar  
    23    11    12 ar  
    24    11    48 1   
    25    12    13 1   
    26    12    25 ar  
    27    13    14 1   
    28    13    24 2   
    29    14    15 1   
    30    14    49 1   
    31    15    16 1   
    32    15    50 1   
    33    15    51 1   
    34    16    17 2   
    35    16    23 1   
    36    17    18 1   
    37    18    19 1   
    38    18    22 2   
    39    19    20 1   
    40    19    52 1   
    41    19    53 1   
    42    20    21 1   
    43    21    54 1   
    44    21    55 1   
    45    21    56 1   
    46    22    23 1   
    47    25    26 1   
    48    25    27 ar  
    49    27    28 ar  
    50    27    57 1   
    51    28    58 1   
    52    30    31 1   
    53    30    59 1   
    54    31    32 ar  
    55    31    39 ar  
    56    32    33 ar  
    57    32    60 1   
    58    33    34 2   
    59    33    37 ar  
    60    34    35 1   
    61    34    61 1   
    62    35    36 1   
    63    35    62 1   
    64    36    37 2   
    65    37    38 ar  
    66    38    39 ar  
    67    38    63 1   
    68    39    64 1   
@<TRIPOS>SUBSTRUCTURE
     1 EJS         1 TEMP              0 ****  ****    0 ROOT
