@<TRIPOS>MOLECULE
EJT
   87    89     1     0     0
SMALL
bcc


@<TRIPOS>ATOM
      1 C1          -5.7370    -0.3060     1.4310 c6         1 EJT       0.307400
      2 O1          -4.4620     0.1280     1.0840 os         1 EJT      -0.446600
      3 C2          -5.6040    -1.7140     2.0190 c6         1 EJT       0.101600
      4 O2          -6.8270    -2.1300     2.5720 oh         1 EJT      -0.567300
      5 C3          -5.2230    -2.6890     0.9080 c6         1 EJT       0.120600
      6 O3          -5.2080    -4.0270     1.3460 oh         1 EJT      -0.589300
      7 C4          -6.2060    -2.5930    -0.2540 c6         1 EJT       0.123100
      8 O4          -5.7810    -3.3780    -1.3430 oh         1 EJT      -0.602800
      9 C5          -6.2880    -1.1410    -0.7280 c6         1 EJT       0.148600
     10 O5          -6.6260    -0.2900     0.3540 os         1 EJT      -0.406100
     11 C6          -7.3450    -0.9530    -1.7960 c3         1 EJT       0.145900
     12 O6          -7.2900     0.3770    -2.2570 oh         1 EJT      -0.593300
     13 CX1          4.0040    -4.2720    -1.2600 c6         1 EJT       0.307400
     14 OX1          3.3780    -3.0370    -1.1290 os         1 EJT      -0.446600
     15 CX2          2.9640    -5.2550    -1.8050 c6         1 EJT       0.101600
     16 OX2          3.5700    -6.4810    -2.1280 oh         1 EJT      -0.567300
     17 CX3          1.9090    -5.5060    -0.7310 c6         1 EJT       0.120600
     18 OX3          0.9760    -6.4910    -1.1100 oh         1 EJT      -0.589300
     19 CX4          2.5640    -5.9640     0.5690 c6         1 EJT       0.123100
     20 OX4          1.6190    -6.0420     1.6100 oh         1 EJT      -0.602800
     21 CX5          3.6340    -4.9550     0.9910 c6         1 EJT       0.148600
     22 OX5          4.5560    -4.7330    -0.0620 os         1 EJT      -0.406100
     23 CX6          4.4270    -5.4450     2.1840 c3         1 EJT       0.145900
     24 OX6          5.3150    -4.4310     2.5900 oh         1 EJT      -0.593300
     25 NZ           2.7890     8.5480     0.5650 n2         1 EJT      -0.434200
     26 NZ2          3.3190     8.0580     1.5470 n1         1 EJT       0.228000
     27 NZ3          3.7650     7.6740     2.5050 n1         1 EJT      -0.060000
     28 CF           2.4820     6.4130    -0.6350 ca         1 EJT      -0.143300
     29 CD1          1.1120     6.1740    -0.6850 ca         1 EJT      -0.046000
     30 CE1          0.6120     4.8860    -0.5560 ca         1 EJT      -0.159100
     31 CD2          3.3510     5.3430    -0.4720 ca         1 EJT      -0.046000
     32 CE2          2.8670     4.0410    -0.3900 ca         1 EJT      -0.159100
     33 CZ           1.4960     3.8190    -0.4200 ca         1 EJT      -0.078000
     34 C           -0.8720     4.6890    -0.6040 c          1 EJT       0.679200
     35 O           -1.5850     5.4370    -1.2580 o          1 EJT      -0.592100
     36 N           -1.3420     3.6520     0.1050 ns         1 EJT      -0.570400
     37 CG          -2.7470     3.3120     0.1770 c3         1 EJT       0.102000
     38 CD          -2.9150     1.8470     0.5460 c3         1 EJT      -0.100900
     39 CE          -4.3780     1.4890     0.7110 c3         1 EJT       0.144400
     40 CX           3.8480     2.9220    -0.2280 c          1 EJT       0.679200
     41 OX           4.9060     3.0930     0.3620 o          1 EJT      -0.592100
     42 NX           3.4810     1.7480    -0.7610 ns         1 EJT      -0.570400
     43 CXG          4.2890     0.5490    -0.6730 c3         1 EJT       0.102000
     44 CXD          3.4260    -0.6760    -0.9270 c3         1 EJT      -0.100900
     45 CXE          4.2360    -1.9530    -0.8290 c3         1 EJT       0.144400
     46 HC1         -6.1830     0.3720     2.1740 h2         1 EJT       0.066700
     47 HC2         -4.8100    -1.6980     2.7790 h1         1 EJT       0.047700
     48 HO2         -7.0220    -1.5780     3.3350 ho         1 EJT       0.405000
     49 HC3         -4.2350    -2.3930     0.5310 h1         1 EJT       0.058200
     50 HO3         -4.4050    -4.1770     1.8540 ho         1 EJT       0.409000
     51 HC4         -7.2020    -2.9080     0.0900 h1         1 EJT       0.071200
     52 HO4         -5.6970    -4.2870    -1.0360 ho         1 EJT       0.423500
     53 HC5         -5.3110    -0.8610    -1.1490 h1         1 EJT       0.064200
     54 HC61        -8.3300    -1.1980    -1.3730 h1         1 EJT       0.036950
     55 HC62        -7.1520    -1.6680    -2.6020 h1         1 EJT       0.036950
     56 HO6         -7.9050     0.4630    -2.9900 ho         1 EJT       0.405000
     57 HCX1         4.8560    -4.1990    -1.9530 h2         1 EJT       0.066700
     58 HCX2         2.4860    -4.8040    -2.6850 h1         1 EJT       0.047700
     59 HOX2         4.1350    -6.3510    -2.8960 ho         1 EJT       0.405000
     60 HCX3         1.4050    -4.5520    -0.5300 h1         1 EJT       0.058200
     61 HOX3         0.2980    -6.0790    -1.6550 ho         1 EJT       0.409000
     62 HCX4         3.0440    -6.9400     0.4030 h1         1 EJT       0.071200
     63 HOX4         0.9080    -6.6230     1.3190 ho         1 EJT       0.423500
     64 HCX5         3.1330    -4.0160     1.2680 h1         1 EJT       0.064200
     65 HX61         3.7240    -5.7080     2.9820 h1         1 EJT       0.036950
     66 HX62         4.9580    -6.3670     1.9060 h1         1 EJT       0.036950
     67 HOX6         5.7310    -4.7130     3.4100 ho         1 EJT       0.405000
     68 HCB1         4.0660     7.8270    -0.9630 h1         1 EJT       0.072700
     69 HCB2         2.4750     8.3980    -1.4520 h1         1 EJT       0.072700
     70 HCD1         0.4280     7.0050    -0.8090 ha         1 EJT       0.159500
     71 HCD2         4.4200     5.5170    -0.4310 ha         1 EJT       0.159500
     72 HCZ          1.1130     2.8090    -0.3370 ha         1 EJT       0.135000
     73 HN          -0.7300     3.2010     0.7670 hn         1 EJT       0.315000
     74 HCG1        -3.2040     3.5140    -0.7920 h1         1 EJT       0.057450
     75 HCG2        -3.2550     3.9470     0.9100 h1         1 EJT       0.057450
     76 HCDA        -2.3870     1.6370     1.4810 hc         1 EJT       0.054200
     77 HCDB        -2.4660     1.2210    -0.2300 hc         1 EJT       0.054200
     78 HCE1        -4.9210     1.6780    -0.2230 h1         1 EJT       0.040950
     79 HCE2        -4.8370     2.1200     1.4840 h1         1 EJT       0.040950
     80 HNX          2.6960     1.7270    -1.3910 hn         1 EJT       0.315000
     81 HXG1         5.1120     0.5870    -1.3950 h1         1 EJT       0.057450
     82 HXG2         4.7360     0.5000     0.3200 h1         1 EJT       0.057450
     83 HXD1         2.6080    -0.7020    -0.2020 hc         1 EJT       0.054200
     84 HXD2         2.9760    -0.6110    -1.9230 hc         1 EJT       0.054200
     85 HXE1         5.0750    -1.9280    -1.5370 h1         1 EJT       0.040950
     86 HXE2         4.6620    -2.0520     0.1760 h1         1 EJT       0.040950
     87 CB           3.0050     7.8210    -0.6990 c3         1 EJT       0.203100
@<TRIPOS>BOND
     1     1     2 1   
     2     1     3 1   
     3     1    10 1   
     4     1    46 1   
     5     2    39 1   
     6     3     4 1   
     7     3     5 1   
     8     3    47 1   
     9     4    48 1   
    10     5     6 1   
    11     5     7 1   
    12     5    49 1   
    13     6    50 1   
    14     7     8 1   
    15     7     9 1   
    16     7    51 1   
    17     8    52 1   
    18     9    10 1   
    19     9    11 1   
    20     9    53 1   
    21    11    12 1   
    22    11    54 1   
    23    11    55 1   
    24    12    56 1   
    25    13    14 1   
    26    13    15 1   
    27    13    22 1   
    28    13    57 1   
    29    14    45 1   
    30    15    16 1   
    31    15    17 1   
    32    15    58 1   
    33    16    59 1   
    34    17    18 1   
    35    17    19 1   
    36    17    60 1   
    37    18    61 1   
    38    19    20 1   
    39    19    21 1   
    40    19    62 1   
    41    20    63 1   
    42    21    22 1   
    43    21    23 1   
    44    21    64 1   
    45    23    24 1   
    46    23    65 1   
    47    23    66 1   
    48    24    67 1   
    49    25    26 1   
    50    25    87 1   
    51    26    27 3   
    52    28    29 ar  
    53    28    31 ar  
    54    28    87 1   
    55    29    30 ar  
    56    29    70 1   
    57    30    33 ar  
    58    30    34 1   
    59    31    32 ar  
    60    31    71 1   
    61    32    33 ar  
    62    32    40 1   
    63    33    72 1   
    64    34    35 2   
    65    34    36 1   
    66    36    37 1   
    67    36    73 1   
    68    37    38 1   
    69    37    74 1   
    70    37    75 1   
    71    38    39 1   
    72    38    76 1   
    73    38    77 1   
    74    39    78 1   
    75    39    79 1   
    76    40    41 2   
    77    40    42 1   
    78    42    43 1   
    79    42    80 1   
    80    43    44 1   
    81    43    81 1   
    82    43    82 1   
    83    44    45 1   
    84    44    83 1   
    85    44    84 1   
    86    45    85 1   
    87    45    86 1   
    88    68    87 1   
    89    69    87 1   
@<TRIPOS>SUBSTRUCTURE
     1 EJT         1 TEMP              0 ****  ****    0 ROOT
