@<TRIPOS>MOLECULE
EJT
   87    89     1     0     0
SMALL
No Charge or Current Charge


@<TRIPOS>ATOM
      1 C1          -5.8970    -0.8060     1.0700 c6         1 EJT       0.353800
      2 O1          -4.6150    -0.2270     0.7560 os         1 EJT      -0.493000
      3 C2          -5.8680    -2.3680     0.9040 c6         1 EJT       0.124800
      4 O2          -7.0960    -3.0040     1.3510 oh         1 EJT      -0.689500
      5 C3          -5.6380    -2.7120    -0.5980 c6         1 EJT       0.143800
      6 O3          -5.6910    -4.1380    -0.7850 oh         1 EJT      -0.651500
      7 C4          -6.7080    -2.0120    -1.4920 c6         1 EJT       0.146300
      8 O4          -6.4530    -2.3100    -2.8810 oh         1 EJT      -0.725000
      9 C5          -6.7090    -0.4770    -1.2100 c6         1 EJT       0.171800
     10 O5          -6.9050    -0.2260     0.2110 os         1 EJT      -0.452500
     11 C6          -7.8320     0.2720    -2.0030 c3         1 EJT       0.169100
     12 O6          -7.8830     1.6890    -1.7280 oh         1 EJT      -0.715500
     13 CX1          3.6360    -4.6020    -0.9540 c6         1 EJT       0.353800
     14 OX1          3.0850    -3.2860    -0.7510 os         1 EJT      -0.493000
     15 CX2          2.5780    -5.7150    -0.6210 c6         1 EJT       0.124800
     16 OX2          3.0440    -7.0510    -0.9520 oh         1 EJT      -0.689500
     17 CX3          2.2480    -5.6580     0.9010 c6         1 EJT       0.143800
     18 OX3          1.3430    -6.7230     1.2450 oh         1 EJT      -0.651500
     19 CX4          3.5530    -5.7650     1.7510 c6         1 EJT       0.146300
     20 OX4          3.2290    -5.6690     3.1540 oh         1 EJT      -0.725000
     21 CX5          4.5660    -4.6650     1.3040 c6         1 EJT       0.171800
     22 OX5          4.8120    -4.7600    -0.1290 os         1 EJT      -0.452500
     23 CX6          5.9370    -4.7820     2.0490 c3         1 EJT       0.169100
     24 OX6          6.9090    -3.8020     1.6230 oh         1 EJT      -0.715500
     25 NZ           3.3250     8.3360     0.7860 n2         1 EJT      -0.434200
     26 NZ2          4.3870     7.8900     1.2510 n1         1 EJT       0.228000
     27 NZ3          5.2820     7.3740     1.7280 n1         1 EJT      -0.060000
     28 CF           2.3950     6.4290    -0.4740 ca         1 EJT      -0.143300
     29 CD1          1.0640     6.2080    -0.0810 ca         1 EJT      -0.028000
     30 CE1          0.5370     4.9010    -0.0060 ca         1 EJT      -0.159100
     31 CD2          3.2170     5.3350    -0.7940 ca         1 EJT      -0.028000
     32 CE2          2.7250     4.0140    -0.7260 ca         1 EJT      -0.159100
     33 CZ           1.3790     3.8070    -0.3310 ca         1 EJT      -0.060000
     34 C           -0.9060     4.7180     0.4220 c          1 EJT       0.612200
     35 O           -1.6220     5.6650     0.7180 o          1 EJT      -0.592100
     36 N           -1.3880     3.4270     0.4660 ns         1 EJT      -0.503400
     37 CG          -2.7540     3.0700     0.8520 c3         1 EJT       0.102000
     38 CD          -3.0350     1.5740     0.6250 c3         1 EJT      -0.100900
     39 CE          -4.4670     1.1770     1.0240 c3         1 EJT       0.167600
     40 CX           3.6550     2.8690    -1.0780 c          1 EJT       0.612200
     41 OX           4.8080     3.0560    -1.4410 o          1 EJT      -0.592100
     42 NX           3.1450     1.5920    -0.9740 ns         1 EJT      -0.503400
     43 CXG          3.9030     0.3760    -1.2700 c3         1 EJT       0.102000
     44 CXD          3.1220    -0.8900    -0.8730 c3         1 EJT      -0.100900
     45 CXE          3.9010    -2.1820    -1.1750 c3         1 EJT       0.167600
     46 HC1         -6.1410    -0.5720     2.1170 h2         1 EJT       0.066700
     47 HC2         -5.0170    -2.7550     1.4840 h1         1 EJT       0.047700
     48 HO2         -7.2090    -2.7930     2.3080 ho         1 EJT       0.504000
     49 HC3         -4.6450    -2.3360    -0.8890 h1         1 EJT       0.058200
     50 HO3         -6.3330    -4.4480    -0.1030 ho         1 EJT       0.448000
     51 HC4         -7.6980    -2.4010    -1.2090 h1         1 EJT       0.071200
     52 HO4         -6.1580    -3.2540    -2.8900 ho         1 EJT       0.522500
     53 HC5         -5.7420    -0.0530    -1.5190 h1         1 EJT       0.064200
     54 HC61        -8.7940    -0.1950    -1.7510 h1         1 EJT       0.036950
     55 HC62        -7.6630     0.1080    -3.0750 h1         1 EJT       0.036950
     56 HO6         -8.6600     2.0490    -2.2180 ho         1 EJT       0.504000
     57 HCX1         3.9240    -4.7030    -2.0120 h2         1 EJT       0.066700
     58 HCX2         1.6600    -5.4910    -1.1840 h1         1 EJT       0.047700
     59 HOX2         3.2240    -7.0710    -1.9210 ho         1 EJT       0.504000
     60 HCX3         1.7760    -4.6860     1.1140 h1         1 EJT       0.058200
     61 HOX3         1.5810    -7.4510     0.6240 ho         1 EJT       0.448000
     62 HCX4         4.0140    -6.7430     1.5460 h1         1 EJT       0.071200
     63 HOX4         2.3800    -6.1650     3.2550 ho         1 EJT       0.522500
     64 HCX5         4.1460    -3.6740     1.5300 h1         1 EJT       0.064200
     65 HX61         5.7520    -4.6780     3.1260 h1         1 EJT       0.036950
     66 HX62         6.3280    -5.7960     1.8840 h1         1 EJT       0.036950
     67 HOX6         7.7490    -4.0060     2.0980 ho         1 EJT       0.504000
     68 HCB1         3.8000     7.8800    -1.2350 h1         1 EJT       0.072700
     69 HCB2         2.1740     8.5060    -0.9780 h1         1 EJT       0.072700
     70 HCD1         0.4380     7.0630     0.1690 ha         1 EJT       0.141500
     71 HCD2         4.2480     5.5160    -1.0930 ha         1 EJT       0.141500
     72 HCZ          0.9880     2.7970    -0.2770 ha         1 EJT       0.117000
     73 HN          -0.7500     2.6870     0.2090 hn         1 EJT       0.315000
     74 HCG1        -3.4600     3.6690     0.2610 h1         1 EJT       0.057450
     75 HCG2        -2.8970     3.3170     1.9130 h1         1 EJT       0.057450
     76 HCDA        -2.3220     0.9780     1.2070 hc         1 EJT       0.054200
     77 HCDB        -2.8790     1.3330    -0.4330 hc         1 EJT       0.054200
     78 HCE1        -5.1870     1.7660     0.4400 h1         1 EJT       0.040950
     79 HCE2        -4.6270     1.3890     2.0900 h1         1 EJT       0.040950
     80 HNX          2.1870     1.5010    -0.6670 hn         1 EJT       0.315000
     81 HXG1         4.1250     0.3510    -2.3460 h1         1 EJT       0.057450
     82 HXG2         4.8540     0.4060    -0.7220 h1         1 EJT       0.057450
     83 HXD1         2.8940    -0.8520     0.1990 hc         1 EJT       0.054200
     84 HXD2         2.1670    -0.9120    -1.4120 hc         1 EJT       0.054200
     85 HXE1         4.1120    -2.2440    -2.2510 h1         1 EJT       0.040950
     86 HXE2         4.8570    -2.1680    -0.6330 h1         1 EJT       0.040950
     87 CB           2.9430     7.8510    -0.5470 c3         1 EJT       0.203100
@<TRIPOS>BOND
     1     1     2 1   
     2     1     3 1   
     3     1    10 1   
     4     1    46 1   
     5     2    39 1   
     6     3     4 1   
     7     3     5 1   
     8     3    47 1   
     9     4    48 1   
    10     5     6 1   
    11     5     7 1   
    12     5    49 1   
    13     6    50 1   
    14     7     8 1   
    15     7     9 1   
    16     7    51 1   
    17     8    52 1   
    18     9    10 1   
    19     9    11 1   
    20     9    53 1   
    21    11    12 1   
    22    11    54 1   
    23    11    55 1   
    24    12    56 1   
    25    13    14 1   
    26    13    15 1   
    27    13    22 1   
    28    13    57 1   
    29    14    45 1   
    30    15    16 1   
    31    15    17 1   
    32    15    58 1   
    33    16    59 1   
    34    17    18 1   
    35    17    19 1   
    36    17    60 1   
    37    18    61 1   
    38    19    20 1   
    39    19    21 1   
    40    19    62 1   
    41    20    63 1   
    42    21    22 1   
    43    21    23 1   
    44    21    64 1   
    45    23    24 1   
    46    23    65 1   
    47    23    66 1   
    48    24    67 1   
    49    25    26 1   
    50    25    87 1   
    51    26    27 3   
    52    28    29 ar  
    53    28    31 ar  
    54    28    87 1   
    55    29    30 ar  
    56    29    70 1   
    57    30    33 ar  
    58    30    34 1   
    59    31    32 ar  
    60    31    71 1   
    61    32    33 ar  
    62    32    40 1   
    63    33    72 1   
    64    34    35 2   
    65    34    36 1   
    66    36    37 1   
    67    36    73 1   
    68    37    38 1   
    69    37    74 1   
    70    37    75 1   
    71    38    39 1   
    72    38    76 1   
    73    38    77 1   
    74    39    78 1   
    75    39    79 1   
    76    40    41 2   
    77    40    42 1   
    78    42    43 1   
    79    42    80 1   
    80    43    44 1   
    81    43    81 1   
    82    43    82 1   
    83    44    45 1   
    84    44    83 1   
    85    44    84 1   
    86    45    85 1   
    87    45    86 1   
    88    68    87 1   
    89    69    87 1   
@<TRIPOS>SUBSTRUCTURE
     1 EJT         1 TEMP              0 ****  ****    0 ROOT
