@<TRIPOS>MOLECULE
EJU
   54    57     1     0     0
SMALL
abcg2


@<TRIPOS>ATOM
      1 C1          34.1220    -9.7610   -31.8010 cc         1 EJU      -0.061000
      2 C2          34.7180   -10.9120   -32.3800 cc         1 EJU      -0.052000
      3 C11         33.4420    -7.4440   -32.3820 ca         1 EJU      -0.093500
      4 C12         33.7360    -6.1470   -32.7800 ca         1 EJU      -0.102000
      5 C13         35.0360    -5.7690   -33.0880 ca         1 EJU      -0.081300
      6 C14         36.0410    -6.7290   -32.9800 ca         1 EJU      -0.102000
      7 C15         35.7550    -8.0230   -32.5800 ca         1 EJU      -0.093500
      8 C16         35.3580    -4.3710   -33.5440 c3         1 EJU       0.211100
      9 C18         36.9060    -2.5540   -33.4010 c3         1 EJU       0.149600
     10 C19         36.0670    -3.5530   -31.4040 c3         1 EJU       0.149600
     11 C20         29.8390   -13.5330   -29.0170 ca         1 EJU       0.149100
     12 C21         28.5150   -13.3420   -29.4080 ca         1 EJU      -0.193000
     13 C22         28.1700   -13.4350   -30.7510 ca         1 EJU      -0.065000
     14 C23         29.1330   -13.7130   -31.7060 ca         1 EJU      -0.140000
     15 C24         30.4520   -13.8950   -31.3080 ca         1 EJU      -0.065000
     16 C25         30.8260   -13.8070   -29.9760 ca         1 EJU      -0.158300
     17 C26         32.2630   -14.0170   -29.5460 c3         1 EJU       0.282100
     18 C29         29.3370   -13.0910   -26.7360 c3         1 EJU       0.148900
     19 N3          34.3690   -12.1710   -31.9270 na         1 EJU      -0.019800
     20 C4          33.4590   -12.4030   -30.9200 cc         1 EJU       0.348000
     21 C5          32.8770   -11.2940   -30.3570 cd         1 EJU      -0.249000
     22 C6          33.2180   -10.0020   -30.7990 cd         1 EJU      -0.035000
     23 C7          34.4460    -8.4040   -32.2680 ca         1 EJU      -0.018000
     24 N8          35.6020   -11.0370   -33.3480 nd         1 EJU      -0.113000
     25 N9          35.8350   -12.3500   -33.5250 nd         1 EJU      -0.345700
     26 C10         35.1120   -13.0300   -32.6890 cc         1 EJU       0.292700
     27 N17         36.4400    -3.7760   -32.7840 n3         1 EJU      -0.712600
     28 N27         33.2400   -13.6830   -30.5520 nu         1 EJU      -0.973200
     29 H1          32.4140    -7.7120   -32.1700 ha         1 EJU       0.119500
     30 H2          32.9340    -5.4210   -32.8560 ha         1 EJU       0.117000
     31 H3          37.0650    -6.4550   -33.2020 ha         1 EJU       0.117000
     32 H4          36.5590    -8.7420   -32.4990 ha         1 EJU       0.119500
     33 H5          35.6670    -4.4040   -34.5940 h1         1 EJU       0.037200
     34 H6          34.4420    -3.7570   -33.5120 h1         1 EJU       0.037200
     35 H7          37.7560    -2.1580   -32.8450 h1         1 EJU       0.030367
     36 H8          37.2370    -2.7500   -34.4220 h1         1 EJU       0.030367
     37 H9          36.1390    -1.7640   -33.4440 h1         1 EJU       0.030367
     38 H10         36.9140    -3.1430   -30.8520 h1         1 EJU       0.030367
     39 H11         35.2240    -2.8530   -31.2940 h1         1 EJU       0.030367
     40 H12         35.7860    -4.4910   -30.9250 h1         1 EJU       0.030367
     41 H13         27.7450   -13.1220   -28.6810 ha         1 EJU       0.120000
     42 H14         27.1380   -13.2860   -31.0420 ha         1 EJU       0.116000
     43 H15         28.8660   -13.7860   -32.7520 ha         1 EJU       0.121000
     44 H16         31.2060   -14.1050   -32.0570 ha         1 EJU       0.111000
     45 H17         32.4260   -15.0630   -29.2830 h1         1 EJU       0.071200
     46 H18         32.4820   -13.4460   -28.6420 h1         1 EJU       0.071200
     47 H19         29.8920   -13.0620   -25.8020 h1         1 EJU       0.043367
     48 H20         28.9120   -12.1020   -26.9240 h1         1 EJU       0.043367
     49 H21         28.5220   -13.8130   -26.6370 h1         1 EJU       0.043367
     50 H22         32.1500   -11.4080   -29.5670 ha         1 EJU       0.139000
     51 H23         32.7410    -9.1640   -30.3070 ha         1 EJU       0.122000
     52 H24         35.1000   -14.1030   -32.6020 h5         1 EJU       0.068800
     53 H26         33.5470   -14.4290   -31.1530 hn         1 EJU       0.492000
     54 O28         30.2590   -13.4680   -27.7380 os         1 EJU      -0.351100
@<TRIPOS>BOND
     1     1     2 1   
     2     1    22 2   
     3     1    23 1   
     4     2    19 1   
     5     2    24 2   
     6     3     4 ar  
     7     3    23 ar  
     8     3    29 1   
     9     4     5 ar  
    10     4    30 1   
    11     5     6 ar  
    12     5     8 1   
    13     6     7 ar  
    14     6    31 1   
    15     7    23 ar  
    16     7    32 1   
    17     8    27 1   
    18     8    33 1   
    19     8    34 1   
    20     9    27 1   
    21     9    35 1   
    22     9    36 1   
    23     9    37 1   
    24    10    27 1   
    25    10    38 1   
    26    10    39 1   
    27    10    40 1   
    28    11    12 ar  
    29    11    16 ar  
    30    11    54 1   
    31    12    13 ar  
    32    12    41 1   
    33    13    14 ar  
    34    13    42 1   
    35    14    15 ar  
    36    14    43 1   
    37    15    16 ar  
    38    15    44 1   
    39    16    17 1   
    40    17    28 1   
    41    17    45 1   
    42    17    46 1   
    43    18    47 1   
    44    18    48 1   
    45    18    49 1   
    46    18    54 1   
    47    19    20 1   
    48    19    26 1   
    49    20    21 2   
    50    20    28 1   
    51    21    22 1   
    52    21    50 1   
    53    22    51 1   
    54    24    25 1   
    55    25    26 2   
    56    26    52 1   
    57    28    53 1   
@<TRIPOS>SUBSTRUCTURE
     1 EJU         1 TEMP              0 ****  ****    0 ROOT
