@<TRIPOS>MOLECULE
EJU
   54    57     1     0     0
SMALL
No Charge or Current Charge


@<TRIPOS>ATOM
      1 C1          34.0940    -9.8740   -31.8920 cc         1 EJU      -0.061000
      2 C2          34.6710   -11.0440   -32.4880 cc         1 EJU      -0.052000
      3 C11         33.4590    -7.4270   -32.0040 ca         1 EJU      -0.093500
      4 C12         33.7370    -6.0980   -32.3700 ca         1 EJU      -0.102000
      5 C13         34.9430    -5.7720   -33.0120 ca         1 EJU      -0.081300
      6 C14         35.8660    -6.7950   -33.2860 ca         1 EJU      -0.102000
      7 C15         35.5880    -8.1240   -32.9230 ca         1 EJU      -0.093500
      8 C16         35.2500    -4.3300   -33.4110 c3         1 EJU       0.211100
      9 C18         36.7460    -2.3940   -33.1490 c3         1 EJU       0.149600
     10 C19         36.0230    -3.6450   -31.1610 c3         1 EJU       0.149600
     11 C20         29.9740   -13.2760   -29.1980 ca         1 EJU       0.149100
     12 C21         28.6600   -13.0560   -29.6700 ca         1 EJU      -0.193000
     13 C22         28.2510   -13.5830   -30.9060 ca         1 EJU      -0.065000
     14 C23         29.1480   -14.3360   -31.6760 ca         1 EJU      -0.140000
     15 C24         30.4560   -14.5590   -31.2160 ca         1 EJU      -0.065000
     16 C25         30.8830   -14.0270   -29.9800 ca         1 EJU      -0.158300
     17 C26         32.3120   -14.2900   -29.5040 c3         1 EJU       0.282100
     18 C29         29.5510   -11.9840   -27.1290 c3         1 EJU       0.148900
     19 N3          34.3930   -12.2880   -32.0150 na         1 EJU      -0.019800
     20 C4          33.5460   -12.5690   -30.9370 cc         1 EJU       0.348000
     21 C5          33.0290   -11.4330   -30.3270 cd         1 EJU      -0.249000
     22 C6          33.2970   -10.0860   -30.7790 cd         1 EJU      -0.035000
     23 C7          34.3810    -8.4690   -32.2710 ca         1 EJU      -0.018000
     24 N8          35.4600   -11.2060   -33.5390 nd         1 EJU      -0.113000
     25 N9          35.6810   -12.5690   -33.7150 nd         1 EJU      -0.345700
     26 C10         35.0130   -13.2310   -32.7780 cc         1 EJU       0.292700
     27 N17         36.3320    -3.7070   -32.6090 n3         1 EJU      -0.712600
     28 N27         33.2930   -13.8680   -30.5250 nu         1 EJU      -0.973200
     29 H1          32.4980    -7.6340   -31.5430 ha         1 EJU       0.119500
     30 H2          33.0060    -5.3210   -32.1580 ha         1 EJU       0.117000
     31 H3          36.8080    -6.5570   -33.7750 ha         1 EJU       0.117000
     32 H4          36.3440    -8.8750   -33.1270 ha         1 EJU       0.119500
     33 H5          35.5320    -4.3310   -34.4730 h1         1 EJU       0.037200
     34 H6          34.3320    -3.7310   -33.3310 h1         1 EJU       0.037200
     35 H7          37.6000    -1.9940   -32.5860 h1         1 EJU       0.030367
     36 H8          37.0490    -2.4840   -34.2010 h1         1 EJU       0.030367
     37 H9          35.9240    -1.6680   -33.0890 h1         1 EJU       0.030367
     38 H10         36.8650    -3.2120   -30.6040 h1         1 EJU       0.030367
     39 H11         35.1340    -3.0270   -30.9760 h1         1 EJU       0.030367
     40 H12         35.8370    -4.6480   -30.7540 h1         1 EJU       0.030367
     41 H13         27.9410   -12.4810   -29.0930 ha         1 EJU       0.120000
     42 H14         27.2380   -13.4110   -31.2640 ha         1 EJU       0.116000
     43 H15         28.8320   -14.7470   -32.6320 ha         1 EJU       0.121000
     44 H16         31.1410   -15.1450   -31.8230 ha         1 EJU       0.111000
     45 H17         32.4200   -15.3650   -29.3020 h1         1 EJU       0.071200
     46 H18         32.5150   -13.7720   -28.5570 h1         1 EJU       0.071200
     47 H19         30.0920   -11.6910   -26.2210 h1         1 EJU       0.043367
     48 H20         29.2290   -11.0690   -27.6430 h1         1 EJU       0.043367
     49 H21         28.6620   -12.5510   -26.8260 h1         1 EJU       0.043367
     50 H22         32.3930   -11.5520   -29.4600 ha         1 EJU       0.139000
     51 H23         32.8770    -9.2630   -30.2120 ha         1 EJU       0.122000
     52 H24         34.9560   -14.3010   -32.6260 h5         1 EJU       0.068800
     53 H26         33.7760   -14.6100   -31.0300 hn         1 EJU       0.492000
     54 O28         30.3990   -12.7760   -27.9800 os         1 EJU      -0.351100
@<TRIPOS>BOND
     1     1     2 1   
     2     1    22 2   
     3     1    23 1   
     4     2    19 1   
     5     2    24 2   
     6     3     4 ar  
     7     3    23 ar  
     8     3    29 1   
     9     4     5 ar  
    10     4    30 1   
    11     5     6 ar  
    12     5     8 1   
    13     6     7 ar  
    14     6    31 1   
    15     7    23 ar  
    16     7    32 1   
    17     8    27 1   
    18     8    33 1   
    19     8    34 1   
    20     9    27 1   
    21     9    35 1   
    22     9    36 1   
    23     9    37 1   
    24    10    27 1   
    25    10    38 1   
    26    10    39 1   
    27    10    40 1   
    28    11    12 ar  
    29    11    16 ar  
    30    11    54 1   
    31    12    13 ar  
    32    12    41 1   
    33    13    14 ar  
    34    13    42 1   
    35    14    15 ar  
    36    14    43 1   
    37    15    16 ar  
    38    15    44 1   
    39    16    17 1   
    40    17    28 1   
    41    17    45 1   
    42    17    46 1   
    43    18    47 1   
    44    18    48 1   
    45    18    49 1   
    46    18    54 1   
    47    19    20 1   
    48    19    26 1   
    49    20    21 2   
    50    20    28 1   
    51    21    22 1   
    52    21    50 1   
    53    22    51 1   
    54    24    25 1   
    55    25    26 2   
    56    26    52 1   
    57    28    53 1   
@<TRIPOS>SUBSTRUCTURE
     1 EJU         1 TEMP              0 ****  ****    0 ROOT
