@<TRIPOS>MOLECULE
EJV
   35    35     1     0     0
SMALL
abcg2


@<TRIPOS>ATOM
      1 C10          2.9060     1.2050     0.0100 ca         1 EJV      -0.090000
      2 C13          1.5460    -1.0600    -0.7940 ca         1 EJV      -0.138500
      3 C01         -7.8610    -0.1720     0.6220 c3         1 EJV      -0.087100
      4 C02         -6.4110    -0.2570     1.0790 c3         1 EJV      -0.076400
      5 C03         -5.4160     0.0100    -0.0450 c3         1 EJV      -0.075400
      6 C04         -3.9640    -0.0650     0.4090 c3         1 EJV      -0.076400
      7 C05         -2.9630     0.1720    -0.7160 c3         1 EJV      -0.075400
      8 C06         -1.5160     0.0800    -0.2490 c3         1 EJV      -0.076400
      9 C07         -0.5070     0.2780    -1.3820 c3         1 EJV      -0.015100
     10 C08          0.9110     0.1760    -0.8960 ca         1 EJV      -0.120300
     11 C09          1.6140     1.3060    -0.4850 ca         1 EJV      -0.138500
     12 C11          3.5400    -0.0310     0.1150 ca         1 EJV      -0.129600
     13 C12          2.8370    -1.1620    -0.2960 ca         1 EJV      -0.090000
     14 C14          4.9580    -0.1420     0.6560 c          1 EJV       0.711600
     15 O15          5.4440    -1.2880     0.7210 o          1 EJV      -0.723000
     16 O16          5.5160     0.9220     0.9870 o          1 EJV      -0.723000
     17 H1           3.4330     2.0990     0.3170 ha         1 EJV       0.125000
     18 H2           1.0240    -1.9560    -1.1100 ha         1 EJV       0.082000
     19 H3          -8.5510    -0.3770     1.4410 hc         1 EJV       0.027367
     20 H4          -8.0950     0.8210     0.2340 hc         1 EJV       0.027367
     21 H5          -8.0690    -0.8920    -0.1720 hc         1 EJV       0.027367
     22 H6          -6.2400     0.4580     1.8890 hc         1 EJV       0.036700
     23 H7          -6.2180    -1.2470     1.5020 hc         1 EJV       0.036700
     24 H8          -5.5820    -0.7110    -0.8540 hc         1 EJV       0.033700
     25 H9          -5.6140     0.9990    -0.4740 hc         1 EJV       0.033700
     26 H10         -3.7950     0.6680     1.2060 hc         1 EJV       0.037700
     27 H11         -3.7750    -1.0480     0.8550 hc         1 EJV       0.037700
     28 H12         -3.1350    -0.5590    -1.5140 hc         1 EJV       0.030700
     29 H13         -3.1410     1.1570    -1.1610 hc         1 EJV       0.030700
     30 H14         -1.3330     0.8260     0.5310 hc         1 EJV       0.043200
     31 H15         -1.3450    -0.8970     0.2150 hc         1 EJV       0.043200
     32 H16         -0.6890    -0.4710    -2.1580 hc         1 EJV       0.029700
     33 H17         -0.6720     1.2560    -1.8430 hc         1 EJV       0.029700
     34 H18          1.1450     2.2810    -0.5610 ha         1 EJV       0.082000
     35 H19          3.3090    -2.1340    -0.2250 ha         1 EJV       0.125000
@<TRIPOS>BOND
     1     1    11 ar  
     2     1    12 ar  
     3     1    17 1   
     4     2    10 ar  
     5     2    13 ar  
     6     2    18 1   
     7     3     4 1   
     8     3    19 1   
     9     3    20 1   
    10     3    21 1   
    11     4     5 1   
    12     4    22 1   
    13     4    23 1   
    14     5     6 1   
    15     5    24 1   
    16     5    25 1   
    17     6     7 1   
    18     6    26 1   
    19     6    27 1   
    20     7     8 1   
    21     7    28 1   
    22     7    29 1   
    23     8     9 1   
    24     8    30 1   
    25     8    31 1   
    26     9    10 1   
    27     9    32 1   
    28     9    33 1   
    29    10    11 ar  
    30    11    34 1   
    31    12    13 ar  
    32    12    14 1   
    33    13    35 1   
    34    14    15 1   
    35    14    16 1   
@<TRIPOS>SUBSTRUCTURE
     1 EJV         1 TEMP              0 ****  ****    0 ROOT
