@<TRIPOS>MOLECULE
EJV
   35    35     1     0     0
SMALL
No Charge or Current Charge


@<TRIPOS>ATOM
      1 C10          2.9370     1.2260     0.0660 ca         1 EJV      -0.090000
      2 C13          1.6200    -1.0810    -0.8340 ca         1 EJV      -0.138500
      3 C01         -7.9530    -0.1220     0.6000 c3         1 EJV      -0.087100
      4 C02         -6.4920    -0.2050     1.0820 c3         1 EJV      -0.076400
      5 C03         -5.4680    -0.0010    -0.0550 c3         1 EJV      -0.075400
      6 C04         -4.0030    -0.0850     0.4280 c3         1 EJV      -0.076400
      7 C05         -2.9790     0.1200    -0.7100 c3         1 EJV      -0.075400
      8 C06         -1.5140     0.0360    -0.2260 c3         1 EJV      -0.076400
      9 C07         -0.4870     0.2410    -1.3600 c3         1 EJV      -0.015100
     10 C08          0.9480     0.1530    -0.8570 ca         1 EJV      -0.120300
     11 C09          1.6140     1.3050    -0.4030 ca         1 EJV      -0.138500
     12 C11          3.6230    -0.0110     0.0910 ca         1 EJV      -0.129600
     13 C12          2.9430    -1.1650    -0.3660 ca         1 EJV      -0.090000
     14 C14          5.0560    -0.0990     0.5980 c          1 EJV       0.711600
     15 O15          5.6110    -1.1890     0.6020 o          1 EJV      -0.723000
     16 O16          5.6050     0.9240     0.9840 o          1 EJV      -0.723000
     17 H1           3.4280     2.1340     0.4110 ha         1 EJV       0.125000
     18 H2           1.1170    -1.9820    -1.1790 ha         1 EJV       0.082000
     19 H3          -8.6420    -0.2720     1.4410 hc         1 EJV       0.027367
     20 H4          -8.1610     0.8610     0.1590 hc         1 EJV       0.027367
     21 H5          -8.1580    -0.8910    -0.1530 hc         1 EJV       0.027367
     22 H6          -6.3290     0.5520     1.8590 hc         1 EJV       0.036700
     23 H7          -6.3260    -1.1840     1.5490 hc         1 EJV       0.036700
     24 H8          -5.6350    -0.7580    -0.8310 hc         1 EJV       0.033700
     25 H9          -5.6380     0.9780    -0.5210 hc         1 EJV       0.033700
     26 H10         -3.8360     0.6730     1.2040 hc         1 EJV       0.037700
     27 H11         -3.8330    -1.0630     0.8940 hc         1 EJV       0.037700
     28 H12         -3.1460    -0.6380    -1.4850 hc         1 EJV       0.030700
     29 H13         -3.1490     1.0990    -1.1750 hc         1 EJV       0.030700
     30 H14         -1.3450     0.7940     0.5490 hc         1 EJV       0.043200
     31 H15         -1.3420    -0.9420     0.2390 hc         1 EJV       0.043200
     32 H16         -0.6590    -0.5120    -2.1410 hc         1 EJV       0.029700
     33 H17         -0.6620     1.2160    -1.8320 hc         1 EJV       0.029700
     34 H18          1.1060     2.2670    -0.4110 ha         1 EJV       0.082000
     35 H19          3.4390    -2.1330    -0.3600 ha         1 EJV       0.125000
@<TRIPOS>BOND
     1     1    11 ar  
     2     1    12 ar  
     3     1    17 1   
     4     2    10 ar  
     5     2    13 ar  
     6     2    18 1   
     7     3     4 1   
     8     3    19 1   
     9     3    20 1   
    10     3    21 1   
    11     4     5 1   
    12     4    22 1   
    13     4    23 1   
    14     5     6 1   
    15     5    24 1   
    16     5    25 1   
    17     6     7 1   
    18     6    26 1   
    19     6    27 1   
    20     7     8 1   
    21     7    28 1   
    22     7    29 1   
    23     8     9 1   
    24     8    30 1   
    25     8    31 1   
    26     9    10 1   
    27     9    32 1   
    28     9    33 1   
    29    10    11 ar  
    30    11    34 1   
    31    12    13 ar  
    32    12    14 1   
    33    13    35 1   
    34    14    15 1   
    35    14    16 1   
@<TRIPOS>SUBSTRUCTURE
     1 EJV         1 TEMP              0 ****  ****    0 ROOT
