@<TRIPOS>MOLECULE
EJW
   24    25     1     0     0
SMALL
bcc


@<TRIPOS>ATOM
      1 C01          4.1060    -0.3430     0.0580 ca         1 EJW      -0.085000
      2 C02          3.5550     0.9210     0.2300 ca         1 EJW      -0.126000
      3 C03          2.1820     1.0960     0.1900 ca         1 EJW      -0.088500
      4 C04          1.3390     0.0040    -0.0240 ca         1 EJW      -0.181500
      5 C05          1.8980    -1.2610    -0.1950 ca         1 EJW      -0.088500
      6 C06          3.2740    -1.4330    -0.1550 ca         1 EJW      -0.126000
      7 C07         -0.1160     0.1750    -0.0720 cc         1 EJW       0.417800
      8 C08         -1.1070    -0.7980    -0.3800 cc         1 EJW      -0.276600
      9 C09         -2.2640    -0.1100    -0.2960 cd         1 EJW       0.149000
     10 C12         -3.6760    -0.5020    -0.5080 c3         1 EJW       0.116500
     11 N11         -0.6740     1.3300     0.1760 nd         1 EJW      -0.299300
     12 N13         -4.3980    -0.6730     0.7810 nz         1 EJW      -0.837600
     13 O10         -2.0090     1.1590     0.0350 os         1 EJW      -0.117100
     14 H1           5.1790    -0.4760     0.0880 ha         1 EJW       0.150000
     15 H2           4.1990     1.7750     0.3940 ha         1 EJW       0.148500
     16 H3           1.7650     2.0860     0.3220 ha         1 EJW       0.138000
     17 H4           1.2640    -2.1230    -0.3600 ha         1 EJW       0.138000
     18 H5           3.6930    -2.4210    -0.2900 ha         1 EJW       0.148500
     19 H6          -0.9820    -1.8380    -0.6300 ha         1 EJW       0.187000
     20 H7          -4.2200     0.2440    -1.0840 hx         1 EJW       0.123200
     21 H8          -3.7240    -1.4520    -1.0320 hx         1 EJW       0.123200
     22 H9          -5.3700    -0.9350     0.6160 hn         1 EJW       0.462800
     23 H10         -3.9870    -1.4080     1.3580 hn         1 EJW       0.462800
     24 H11         -4.4130     0.1810     1.3380 hn         1 EJW       0.462800
@<TRIPOS>BOND
     1     1     2 ar  
     2     1     6 ar  
     3     1    14 1   
     4     2     3 ar  
     5     2    15 1   
     6     3     4 ar  
     7     3    16 1   
     8     4     5 ar  
     9     4     7 1   
    10     5     6 ar  
    11     5    17 1   
    12     6    18 1   
    13     7     8 1   
    14     7    11 2   
    15     8     9 2   
    16     8    19 1   
    17     9    10 1   
    18     9    13 1   
    19    10    12 1   
    20    10    20 1   
    21    10    21 1   
    22    11    13 1   
    23    12    22 1   
    24    12    23 1   
    25    12    24 1   
@<TRIPOS>SUBSTRUCTURE
     1 EJW         1 TEMP              0 ****  ****    0 ROOT
