@<TRIPOS>MOLECULE
EJW
   24    25     1     0     0
SMALL
No Charge or Current Charge


@<TRIPOS>ATOM
      1 C01          4.1100    -0.4260     0.1120 ca         1 EJW      -0.067000
      2 C02          3.6200     0.8850     0.2050 ca         1 EJW      -0.108000
      3 C03          2.2390     1.1310     0.1210 ca         1 EJW      -0.070500
      4 C04          1.3210     0.0670    -0.0580 ca         1 EJW      -0.181500
      5 C05          1.8320    -1.2500    -0.1500 ca         1 EJW      -0.070500
      6 C06          3.2150    -1.4920    -0.0650 ca         1 EJW      -0.108000
      7 C07         -0.1280     0.3360    -0.1450 cc         1 EJW       0.352500
      8 C08         -1.1310    -0.6410    -0.3210 cc         1 EJW      -0.128000
      9 C09         -2.2990     0.0430    -0.3460 cd         1 EJW       0.039300
     10 C12         -3.7170    -0.4370    -0.4960 c3         1 EJW       0.088300
     11 N11         -0.6320     1.5610    -0.0620 nd         1 EJW      -0.299300
     12 N13         -4.3580    -0.9080     0.7940 nz         1 EJW      -0.975000
     13 O10         -2.0550     1.3780    -0.1910 os         1 EJW      -0.072700
     14 H1           5.1800    -0.6160     0.1770 ha         1 EJW       0.132000
     15 H2           4.3120     1.7140     0.3420 ha         1 EJW       0.130500
     16 H3           1.8900     2.1590     0.1960 ha         1 EJW       0.120000
     17 H4           1.1710    -2.1010    -0.2870 ha         1 EJW       0.120000
     18 H5           3.5920    -2.5100    -0.1380 ha         1 EJW       0.130500
     19 H6          -0.9950    -1.7100    -0.4160 ha         1 EJW       0.169000
     20 H7          -4.3230     0.3750    -0.9130 hx         1 EJW       0.123200
     21 H8          -3.7400    -1.2570    -1.2220 hx         1 EJW       0.123200
     22 H9          -5.3330    -1.2260     0.6740 hn         1 EJW       0.518000
     23 H10         -3.8630    -1.7010     1.2310 hn         1 EJW       0.518000
     24 H11         -4.3960    -0.1750     1.5190 hn         1 EJW       0.518000
@<TRIPOS>BOND
     1     1     2 ar  
     2     1     6 ar  
     3     1    14 1   
     4     2     3 ar  
     5     2    15 1   
     6     3     4 ar  
     7     3    16 1   
     8     4     5 ar  
     9     4     7 1   
    10     5     6 ar  
    11     5    17 1   
    12     6    18 1   
    13     7     8 1   
    14     7    11 2   
    15     8     9 2   
    16     8    19 1   
    17     9    10 1   
    18     9    13 1   
    19    10    12 1   
    20    10    20 1   
    21    10    21 1   
    22    11    13 1   
    23    12    22 1   
    24    12    23 1   
    25    12    24 1   
@<TRIPOS>SUBSTRUCTURE
     1 EJW         1 TEMP              0 ****  ****    0 ROOT
