@<TRIPOS>MOLECULE
EJY
   30    32     1     0     0
SMALL
No Charge or Current Charge


@<TRIPOS>ATOM
      1 C4           3.5670    -0.4160    -0.1320 ca         1 EJY      -0.208200
      2 C5           3.0800    -0.1160     1.1740 ca         1 EJY      -0.040000
      3 C6           1.6950     0.0100     1.4080 ca         1 EJY      -0.123000
      4 C7           0.8350    -0.1700     0.3210 ca         1 EJY      -0.045200
      5 C10         -0.8800    -0.3650    -1.0650 cc         1 EJY       0.428800
      6 C13         -3.8900    -1.1690     0.2570 ca         1 EJY      -0.102000
      7 C15         -5.2560     0.4120     1.5080 ca         1 EJY      -0.102000
      8 C17         -3.7610     1.2100    -0.2410 ca         1 EJY      -0.102000
      9 C20          2.6470    -0.5890    -1.2020 ca         1 EJY       0.031000
     10 O1           5.8080    -0.3920     0.5730 o          1 EJY      -0.404000
     11 N2           5.0360    -0.5500    -0.3820 no         1 EJY       0.697200
     12 O3           5.4120    -0.8110    -1.5320 o          1 EJY      -0.404000
     13 N8          -0.5220    -0.1090     0.2560 na         1 EJY      -0.303600
     14 C11         -2.2980    -0.3930    -1.5720 c3         1 EJY      -0.052400
     15 C12         -3.3450    -0.1110    -0.4980 ca         1 EJY      -0.101300
     16 C14         -4.8430    -0.9070     1.2560 ca         1 EJY      -0.107500
     17 C16         -4.7140     1.4700     0.7590 ca         1 EJY      -0.107500
     18 N18          0.2110    -0.5850    -1.8280 nd         1 EJY      -0.559100
     19 C19          1.2750    -0.4580    -0.9370 ca         1 EJY       0.047400
     20 H1           3.7670     0.0210     2.0080 ha         1 EJY       0.151000
     21 H2           1.3120     0.2390     2.4000 ha         1 EJY       0.131000
     22 H3          -3.5750    -2.1940     0.0720 ha         1 EJY       0.116500
     23 H4          -5.9930     0.6140     2.2820 ha         1 EJY       0.117000
     24 H5          -3.3440     2.0360    -0.8130 ha         1 EJY       0.116500
     25 H6           2.9770    -0.8190    -2.2130 ha         1 EJY       0.166000
     26 H7          -1.1650     0.0850     1.0120 hn         1 EJY       0.366000
     27 H8          -2.3930     0.3350    -2.3860 hc         1 EJY       0.078700
     28 H9          -2.4870    -1.3710    -2.0300 hc         1 EJY       0.078700
     29 H10         -5.2610    -1.7270     1.8360 ha         1 EJY       0.117500
     30 H11         -5.0320     2.4920     0.9540 ha         1 EJY       0.117500
@<TRIPOS>BOND
     1     1     2 ar  
     2     1     9 ar  
     3     1    11 1   
     4     2     3 ar  
     5     2    20 1   
     6     3     4 ar  
     7     3    21 1   
     8     4    13 1   
     9     4    19 ar  
    10     5    13 1   
    11     5    14 1   
    12     5    18 2   
    13     6    15 ar  
    14     6    16 ar  
    15     6    22 1   
    16     7    16 ar  
    17     7    17 ar  
    18     7    23 1   
    19     8    15 ar  
    20     8    17 ar  
    21     8    24 1   
    22     9    19 ar  
    23     9    25 1   
    24    10    11 1   
    25    11    12 1   
    26    13    26 1   
    27    14    15 1   
    28    14    27 1   
    29    14    28 1   
    30    16    29 1   
    31    17    30 1   
    32    18    19 1   
@<TRIPOS>SUBSTRUCTURE
     1 EJY         1 TEMP              0 ****  ****    0 ROOT
