@<TRIPOS>MOLECULE
EJY
   30    32     1     0     0
SMALL
abcg2


@<TRIPOS>ATOM
      1 C4           3.3570     0.0160    -0.1300 ca         1 EJY      -0.208200
      2 C5           3.0760    -0.5880     1.1050 ca         1 EJY      -0.040000
      3 C6           1.8080    -1.0570     1.3780 ca         1 EJY      -0.123000
      4 C7           0.8480    -0.8990     0.3850 ca         1 EJY      -0.045200
      5 C10         -0.9220    -0.8400    -0.9180 cc         1 EJY       0.428800
      6 C13         -4.1000    -0.9560     0.4790 ca         1 EJY      -0.102000
      7 C15         -5.0190     1.1330     1.2390 ca         1 EJY      -0.102000
      8 C17         -3.3540     1.1030    -0.4980 ca         1 EJY      -0.102000
      9 C20          2.4070     0.1760    -1.1270 ca         1 EJY       0.031000
     10 O1           5.5270     0.3700     0.5010 o          1 EJY      -0.404000
     11 N2           4.7030     0.4960    -0.3760 no         1 EJY       0.697200
     12 O3           4.9430     1.0030    -1.4490 o          1 EJY      -0.404000
     13 N8          -0.4670    -1.2320     0.3070 na         1 EJY      -0.303600
     14 C11         -2.3400    -1.0450    -1.3270 c3         1 EJY      -0.052400
     15 C12         -3.2910    -0.2870    -0.4320 ca         1 EJY      -0.101300
     16 C14         -4.9600    -0.2510     1.3120 ca         1 EJY      -0.107500
     17 C16         -4.2130     1.8090     0.3300 ca         1 EJY      -0.107500
     18 N18          0.0040    -0.2740    -1.6380 nd         1 EJY      -0.559100
     19 C19          1.1320    -0.2930    -0.8540 ca         1 EJY       0.047400
     20 H1           3.8490    -0.6930     1.8500 ha         1 EJY       0.151000
     21 H2           1.5820    -1.5260     2.3250 ha         1 EJY       0.131000
     22 H3          -4.0620    -2.0380     0.5370 ha         1 EJY       0.116500
     23 H4          -5.6910     1.6850     1.8840 ha         1 EJY       0.117000
     24 H5          -2.7280     1.6370    -1.2050 ha         1 EJY       0.116500
     25 H6           2.6370     0.6410    -2.0750 ha         1 EJY       0.166000
     26 H7          -1.0100    -1.6900     1.0240 hn         1 EJY       0.366000
     27 H8          -2.4380    -0.7200    -2.3620 hc         1 EJY       0.078700
     28 H9          -2.5720    -2.1130    -1.3010 hc         1 EJY       0.078700
     29 H10         -5.5850    -0.7860     2.0160 ha         1 EJY       0.117500
     30 H11         -4.2570     2.8890     0.2650 ha         1 EJY       0.117500
@<TRIPOS>BOND
     1     1     2 ar  
     2     1     9 ar  
     3     1    11 1   
     4     2     3 ar  
     5     2    20 1   
     6     3     4 ar  
     7     3    21 1   
     8     4    13 1   
     9     4    19 ar  
    10     5    13 1   
    11     5    14 1   
    12     5    18 2   
    13     6    15 ar  
    14     6    16 ar  
    15     6    22 1   
    16     7    16 ar  
    17     7    17 ar  
    18     7    23 1   
    19     8    15 ar  
    20     8    17 ar  
    21     8    24 1   
    22     9    19 ar  
    23     9    25 1   
    24    10    11 1   
    25    11    12 1   
    26    13    26 1   
    27    14    15 1   
    28    14    27 1   
    29    14    28 1   
    30    16    29 1   
    31    17    30 1   
    32    18    19 1   
@<TRIPOS>SUBSTRUCTURE
     1 EJY         1 TEMP              0 ****  ****    0 ROOT
