@<TRIPOS>MOLECULE
EJZ
   16    16     1     0     0
SMALL
No Charge or Current Charge


@<TRIPOS>ATOM
      1 O1         -10.8620    56.4060    32.2900 o          1 EJZ      -0.652500
      2 C1         -10.7780    55.7090    31.2870 c          1 EJZ       0.722200
      3 O4         -11.5050    54.7360    31.1110 o          1 EJZ      -0.652500
      4 C2          -9.7530    56.0320    30.2070 cc         1 EJZ       0.135400
      5 C3          -8.8460    57.0870    30.2220 cd         1 EJZ      -0.409300
      6 N3          -8.7660    58.0240    31.2910 no         1 EJZ       0.707100
      7 O6          -7.9280    57.8070    32.1710 o          1 EJZ      -0.408000
      8 O5          -9.3910    59.0820    31.1640 o          1 EJZ      -0.408000
      9 N1          -9.7370    55.1820    29.1070 ns         1 EJZ      -0.481600
     10 C4          -8.9140    55.2810    28.0370 c          1 EJZ       0.607000
     11 O2          -8.9470    54.5040    27.1040 o          1 EJZ      -0.578000
     12 N2          -8.0530    56.3210    28.1030 ns         1 EJZ      -0.474500
     13 C5          -7.9250    57.2490    29.0900 c          1 EJZ       0.616200
     14 O3          -7.0950    58.1380    29.0090 o          1 EJZ      -0.529000
     15 HN1        -10.3910    54.4060    29.0770 hn         1 EJZ       0.477000
     16 HN2         -7.4270    56.4230    27.3210 hn         1 EJZ       0.329500
@<TRIPOS>BOND
     1     1     2 1   
     2     2     3 1   
     3     2     4 1   
     4     4     5 2   
     5     4     9 1   
     6     5     6 1   
     7     5    13 1   
     8     6     7 1   
     9     6     8 1   
    10     9    10 1   
    11     9    15 1   
    12    10    11 2   
    13    10    12 1   
    14    12    13 1   
    15    12    16 1   
    16    13    14 2   
@<TRIPOS>SUBSTRUCTURE
     1 EJZ         1 TEMP              0 ****  ****    0 ROOT
