@<TRIPOS>MOLECULE
EJZ
   16    16     1     0     0
SMALL
abcg2


@<TRIPOS>ATOM
      1 O1         -10.3190    55.4550    32.3630 o          1 EJZ      -0.652500
      2 C1         -10.7960    55.7840    31.2650 c          1 EJZ       0.722200
      3 O4         -11.9720    55.8600    30.8730 o          1 EJZ      -0.652500
      4 C2          -9.7450    56.0720    30.1730 cc         1 EJZ       0.135400
      5 C3          -8.8730    57.1280    30.1440 cd         1 EJZ      -0.409300
      6 N3          -8.9450    58.1310    31.1730 no         1 EJZ       0.707100
      7 O6          -7.9040    58.6650    31.5390 o          1 EJZ      -0.408000
      8 O5         -10.0480    58.4050    31.6410 o          1 EJZ      -0.408000
      9 N1          -9.6730    55.1330    29.2040 ns         1 EJZ      -0.481600
     10 C4          -8.7750    55.1470    28.1480 c          1 EJZ       0.607000
     11 O2          -8.7530    54.2770    27.3000 o          1 EJZ      -0.578000
     12 N2          -7.9280    56.2250    28.1600 ns         1 EJZ      -0.474500
     13 C5          -7.8880    57.2730    29.0810 c          1 EJZ       0.616200
     14 O3          -7.1060    58.1920    28.9160 o          1 EJZ      -0.529000
     15 HN1        -10.3220    54.3570    29.2190 hn         1 EJZ       0.477000
     16 HN2         -7.2710    56.2840    27.3920 hn         1 EJZ       0.329500
@<TRIPOS>BOND
     1     1     2 1   
     2     2     3 1   
     3     2     4 1   
     4     4     5 2   
     5     4     9 1   
     6     5     6 1   
     7     5    13 1   
     8     6     7 1   
     9     6     8 1   
    10     9    10 1   
    11     9    15 1   
    12    10    11 2   
    13    10    12 1   
    14    12    13 1   
    15    12    16 1   
    16    13    14 2   
@<TRIPOS>SUBSTRUCTURE
     1 EJZ         1 TEMP              0 ****  ****    0 ROOT
