@<TRIPOS>MOLECULE
EK0
   29    31     1     0     0
SMALL
No Charge or Current Charge


@<TRIPOS>ATOM
      1 Cl          -5.1840     0.3280    -0.1050 cl         1 EK0      -0.208000
      2 C1          -3.4510     0.0290    -0.0460 ca         1 EK0       0.122000
      3 C6          -2.5510     1.0490    -0.3780 ca         1 EK0      -0.109000
      4 C5          -1.1650     0.8130    -0.3340 ca         1 EK0      -0.085500
      5 C4          -0.6480    -0.4470     0.0590 ca         1 EK0      -0.107500
      6 C3          -1.5830    -1.4720     0.3600 ca         1 EK0      -0.085500
      7 C2          -2.9680    -1.2330     0.3170 ca         1 EK0      -0.109000
      8 C7           0.8060    -0.7560     0.0970 cc         1 EK0       0.309500
      9 C9           1.9110     0.1430     0.0620 cc         1 EK0      -0.180300
     10 C10          1.9150     1.6580     0.0960 c6         1 EK0       0.007900
     11 C11          3.3160     2.1890     0.5080 c6         1 EK0      -0.076400
     12 C12          4.4550     1.4530    -0.2480 c6         1 EK0      -0.069400
     13 C13          4.4560    -0.0650     0.0710 c6         1 EK0      -0.009100
     14 C8           3.0440    -0.6080     0.0570 cd         1 EK0      -0.148300
     15 N2           2.6070    -1.9290     0.0910 na         1 EK0       0.008800
     16 N1           1.2170    -2.0190     0.1140 nd         1 EK0      -0.516800
     17 H5          -2.9260     2.0230    -0.6810 ha         1 EK0       0.128000
     18 H4          -0.5170     1.6210    -0.6450 ha         1 EK0       0.125000
     19 H3          -1.2440    -2.4640     0.6490 ha         1 EK0       0.125000
     20 H2          -3.6650    -2.0290     0.5650 ha         1 EK0       0.128000
     21 H7           1.6680     2.0590    -0.8970 hc         1 EK0       0.047700
     22 H6           1.1690     2.0460     0.8020 hc         1 EK0       0.047700
     23 H9           3.3740     3.2690     0.3170 hc         1 EK0       0.043700
     24 H8           3.4540     2.0570     1.5900 hc         1 EK0       0.043700
     25 H11          4.3280     1.6000    -1.3300 hc         1 EK0       0.045700
     26 H10          5.4290     1.8890     0.0140 hc         1 EK0       0.045700
     27 H12          5.0910    -0.5990    -0.6500 hc         1 EK0       0.051700
     28 H13          4.9040    -0.2290     1.0610 hc         1 EK0       0.051700
     29 H1           3.1970    -2.7610     0.1040 hn         1 EK0       0.371000
@<TRIPOS>BOND
     1     1     2 1   
     2     2     3 ar  
     3     2     7 ar  
     4     3     4 ar  
     5     3    17 1   
     6     4     5 ar  
     7     4    18 1   
     8     5     6 ar  
     9     5     8 1   
    10     6     7 ar  
    11     6    19 1   
    12     7    20 1   
    13     8     9 1   
    14     8    16 2   
    15     9    10 1   
    16     9    14 2   
    17    10    11 1   
    18    10    21 1   
    19    10    22 1   
    20    11    12 1   
    21    11    23 1   
    22    11    24 1   
    23    12    13 1   
    24    12    25 1   
    25    12    26 1   
    26    13    14 1   
    27    13    27 1   
    28    13    28 1   
    29    14    15 1   
    30    15    16 1   
    31    15    29 1   
@<TRIPOS>SUBSTRUCTURE
     1 EK0         1 TEMP              0 ****  ****    0 ROOT
