@<TRIPOS>MOLECULE
EK0
   29    31     1     0     0
SMALL
abcg2


@<TRIPOS>ATOM
      1 CL          -5.1120     0.2820    -0.0120 cl         1 EK0      -0.208000
      2 C1          -3.4010     0.0000    -0.0180 ca         1 EK0       0.122000
      3 C6          -2.5460     0.9860    -0.4800 ca         1 EK0      -0.109000
      4 C5          -1.1790     0.7530    -0.4800 ca         1 EK0      -0.085500
      5 C4          -0.6510    -0.4540    -0.0210 ca         1 EK0      -0.107500
      6 C3          -1.5400    -1.4300     0.4360 ca         1 EK0      -0.085500
      7 C2          -2.9070    -1.2120     0.4390 ca         1 EK0      -0.109000
      8 C7           0.7920    -0.7050    -0.0210 cc         1 EK0       0.309500
      9 C9           1.8630     0.2200     0.0280 cc         1 EK0      -0.180300
     10 C10          1.9270     1.7120     0.1140 c6         1 EK0       0.007900
     11 C11          3.3230     2.1490     0.5680 c6         1 EK0      -0.076400
     12 C12          4.4270     1.4120    -0.1890 c6         1 EK0      -0.069400
     13 C13          4.4020    -0.0900     0.1020 c6         1 EK0      -0.009100
     14 C8           2.9930    -0.5650     0.0300 cd         1 EK0      -0.148300
     15 N2           2.5700    -1.8400    -0.0140 na         1 EK0       0.008800
     16 N1           1.2500    -1.9500    -0.0450 nd         1 EK0      -0.516800
     17 H5          -2.9350     1.9270    -0.8460 ha         1 EK0       0.128000
     18 H4          -0.5280     1.5250    -0.8680 ha         1 EK0       0.125000
     19 H3          -1.1590    -2.3730     0.8040 ha         1 EK0       0.125000
     20 H2          -3.5780    -1.9800     0.8000 ha         1 EK0       0.128000
     21 H7           1.7050     2.1630    -0.8590 hc         1 EK0       0.047700
     22 H6           1.1730     2.0970     0.8040 hc         1 EK0       0.047700
     23 H9           3.4300     3.2260     0.4290 hc         1 EK0       0.043700
     24 H8           3.4320     1.9580     1.6400 hc         1 EK0       0.043700
     25 H11          4.3040     1.5770    -1.2630 hc         1 EK0       0.045700
     26 H10          5.4040     1.8170     0.0810 hc         1 EK0       0.045700
     27 H12          5.0360    -0.6320    -0.6030 hc         1 EK0       0.051700
     28 H13          4.8070    -0.2850     1.1000 hc         1 EK0       0.051700
     29 H1           3.1390    -2.6720    -0.0370 hn         1 EK0       0.371000
@<TRIPOS>BOND
     1     1     2 1   
     2     2     3 ar  
     3     2     7 ar  
     4     3     4 ar  
     5     3    17 1   
     6     4     5 ar  
     7     4    18 1   
     8     5     6 ar  
     9     5     8 1   
    10     6     7 ar  
    11     6    19 1   
    12     7    20 1   
    13     8     9 1   
    14     8    16 2   
    15     9    10 1   
    16     9    14 2   
    17    10    11 1   
    18    10    21 1   
    19    10    22 1   
    20    11    12 1   
    21    11    23 1   
    22    11    24 1   
    23    12    13 1   
    24    12    25 1   
    25    12    26 1   
    26    13    14 1   
    27    13    27 1   
    28    13    28 1   
    29    14    15 1   
    30    15    16 1   
    31    15    29 1   
@<TRIPOS>SUBSTRUCTURE
     1 EK0         1 TEMP              0 ****  ****    0 ROOT
