@<TRIPOS>MOLECULE
EK1
   68    71     1     0     0
SMALL
No Charge or Current Charge


@<TRIPOS>ATOM
      1 N81          8.7980    -1.2750    -0.4000 nb         1 EK1      -0.177500
      2 C82          7.7580    -1.0430     0.4350 cp         1 EK1       0.197500
      3 N83          7.8510    -1.0410     1.7860 nb         1 EK1      -0.177500
      4 C84          9.0570    -1.2860     2.3360 ca         1 EK1       0.114900
      5 C85         10.1840    -1.5350     1.5390 ca         1 EK1      -0.231000
      6 C86         10.0050    -1.5200     0.1470 ca         1 EK1       0.114900
      7 C99          5.2610    -0.5160     0.6230 ca         1 EK1      -0.077000
      8 C98          6.4060    -0.7690    -0.1800 cp         1 EK1      -0.148500
      9 C19          6.2190    -0.7530    -1.5880 ca         1 EK1      -0.077000
     10 C17          4.9610    -0.4970    -2.1590 ca         1 EK1      -0.093500
     11 C87          3.8310    -0.2470    -1.3510 ca         1 EK1      -0.123600
     12 C22          4.0010    -0.2600     0.0530 ca         1 EK1      -0.093500
     13 C97          2.4880     0.0260    -2.0040 c          1 EK1       0.617700
     14 O99          2.3430     0.0430    -3.2200 o          1 EK1      -0.606100
     15 N99          1.4260     0.2570    -1.1620 ns         1 EK1      -0.487900
     16 C15          0.0720     0.5660    -1.6070 c3         1 EK1       0.161300
     17 C8          -0.8730     0.6920    -0.4200 ca         1 EK1      -0.165300
     18 C9          -0.9580     1.8940     0.3140 ca         1 EK1       0.135100
     19 O3          -0.1590     2.9550    -0.0660 os         1 EK1      -0.352100
     20 C12         -0.1610     4.2110     0.6330 c3         1 EK1       0.168600
     21 C13          0.8560     5.1320    -0.0660 c3         1 EK1      -0.084400
     22 C14          0.9580     6.5240     0.5890 c3         1 EK1      -0.087100
     23 C10         -1.8430     1.9810     1.4110 ca         1 EK1      -0.205000
     24 C11         -2.6340     0.8770     1.7700 ca         1 EK1      -0.068000
     25 C6          -2.5520    -0.3240     1.0430 ca         1 EK1      -0.082300
     26 C5          -3.4170    -1.5190     1.4350 c3         1 EK1      -0.020100
     27 C2          -4.9200    -1.3290     1.0930 c3         1 EK1      -0.184700
     28 C3          -5.1710    -1.1870    -0.4340 c3         1 EK1      -0.016100
     29 C4          -6.6180    -0.8400    -0.7650 ca         1 EK1      -0.039300
     30 C51         -7.0900     0.4750    -0.5820 ca         1 EK1      -0.096500
     31 C52         -8.4220     0.8000    -0.8900 ca         1 EK1      -0.121000
     32 C53         -9.2910    -0.1870    -1.3840 ca         1 EK1      -0.133000
     33 C54         -8.8260    -1.5000    -1.5690 ca         1 EK1      -0.121000
     34 C55         -7.4940    -1.8260    -1.2610 ca         1 EK1      -0.096500
     35 C7          -1.6690    -0.4110    -0.0490 ca         1 EK1      -0.072000
     36 C1          -5.7620    -2.4760     1.6980 c          1 EK1       0.717000
     37 O1          -5.5570    -3.6190     1.3160 o          1 EK1      -0.731000
     38 O2          -6.5780    -2.1960     2.5640 o          1 EK1      -0.731000
     39 H1           9.1160    -1.2800     3.4240 h4         1 EK1       0.022600
     40 H2          11.1570    -1.7320     1.9810 ha         1 EK1       0.132000
     41 H3          10.8320    -1.7050    -0.5380 h4         1 EK1       0.022600
     42 H5           7.0550    -0.9390    -2.2590 ha         1 EK1       0.134000
     43 H6           4.8680    -0.4950    -3.2440 ha         1 EK1       0.129500
     44 H7           3.1670    -0.0730     0.7240 ha         1 EK1       0.129500
     45 H8           0.0870     1.5020    -2.1800 h1         1 EK1       0.061700
     46 H9          -1.1570     4.6720     0.6000 h1         1 EK1       0.028200
     47 H10          1.8440     4.6550    -0.0510 hc         1 EK1       0.058200
     48 H11          1.2740     6.4370     1.6360 hc         1 EK1       0.030367
     49 H12          1.6920     7.1430     0.0600 hc         1 EK1       0.030367
     50 H13         -0.0100     7.0380     0.5600 hc         1 EK1       0.030367
     51 H14         -1.9310     2.8920     1.9950 ha         1 EK1       0.107000
     52 H15         -3.3140     0.9550     2.6170 ha         1 EK1       0.121000
     53 H16         -3.0480    -2.4330     0.9530 hc         1 EK1       0.053200
     54 H17         -3.3220    -1.6910     2.5140 hc         1 EK1       0.053200
     55 H18         -5.2460    -0.3960     1.5690 hc         1 EK1       0.038700
     56 H19         -4.5210    -0.4010    -0.8370 hc         1 EK1       0.033700
     57 H20         -4.8700    -2.1120    -0.9410 hc         1 EK1       0.033700
     58 H21         -6.4220     1.2440    -0.2000 ha         1 EK1       0.116500
     59 H22         -8.7810     1.8170    -0.7450 ha         1 EK1       0.093000
     60 H23        -10.3220     0.0640    -1.6220 ha         1 EK1       0.089000
     61 H24         -9.4980    -2.2660    -1.9510 ha         1 EK1       0.093000
     62 H25         -7.1430    -2.8450    -1.4060 ha         1 EK1       0.116500
     63 H26         -1.6020    -1.3380    -0.6140 ha         1 EK1       0.114000
     64 H28          1.6080     0.2410    -0.1680 hn         1 EK1       0.312500
     65 H29         -0.2730    -0.2320    -2.2780 h1         1 EK1       0.061700
     66 H30          0.1310     4.0710     1.6820 h1         1 EK1       0.028200
     67 H31          0.5710     5.2520    -1.1190 hc         1 EK1       0.058200
     68 H4           5.3380    -0.5140     1.7080 ha         1 EK1       0.134000
@<TRIPOS>BOND
     1     1     2 ar  
     2     1     6 ar  
     3     2     3 ar  
     4     2     8 1   
     5     3     4 ar  
     6     4     5 ar  
     7     4    39 1   
     8     5     6 ar  
     9     5    40 1   
    10     6    41 1   
    11     7     8 ar  
    12     7    12 ar  
    13     7    68 1   
    14     8     9 ar  
    15     9    10 ar  
    16     9    42 1   
    17    10    11 ar  
    18    10    43 1   
    19    11    12 ar  
    20    11    13 1   
    21    12    44 1   
    22    13    14 2   
    23    13    15 1   
    24    15    16 1   
    25    15    64 1   
    26    16    17 1   
    27    16    45 1   
    28    16    65 1   
    29    17    18 ar  
    30    17    35 ar  
    31    18    19 1   
    32    18    23 ar  
    33    19    20 1   
    34    20    21 1   
    35    20    46 1   
    36    20    66 1   
    37    21    22 1   
    38    21    47 1   
    39    21    67 1   
    40    22    48 1   
    41    22    49 1   
    42    22    50 1   
    43    23    24 ar  
    44    23    51 1   
    45    24    25 ar  
    46    24    52 1   
    47    25    26 1   
    48    25    35 ar  
    49    26    27 1   
    50    26    53 1   
    51    26    54 1   
    52    27    28 1   
    53    27    36 1   
    54    27    55 1   
    55    28    29 1   
    56    28    56 1   
    57    28    57 1   
    58    29    30 ar  
    59    29    34 ar  
    60    30    31 ar  
    61    30    58 1   
    62    31    32 ar  
    63    31    59 1   
    64    32    33 ar  
    65    32    60 1   
    66    33    34 ar  
    67    33    61 1   
    68    34    62 1   
    69    35    63 1   
    70    36    37 1   
    71    36    38 1   
@<TRIPOS>SUBSTRUCTURE
     1 EK1         1 TEMP              0 ****  ****    0 ROOT
