@<TRIPOS>MOLECULE
EK1
   68    71     1     0     0
SMALL
bcc


@<TRIPOS>ATOM
      1 N81          8.5190    -0.0130    -0.2770 nb         1 EK1      -0.703500
      2 C82          7.4630    -0.1220     0.5240 cp         1 EK1       0.723500
      3 N83          7.5200    -0.3240     1.8370 nb         1 EK1      -0.703500
      4 C84          8.7220    -0.4280     2.3840 ca         1 EK1       0.443200
      5 C85          9.8830    -0.3330     1.6370 ca         1 EK1      -0.379600
      6 C86          9.7170    -0.1190     0.2800 ca         1 EK1       0.443200
      7 C99          4.9730    -0.0980     0.6900 ca         1 EK1      -0.095000
      8 C98          6.1230    -0.0140    -0.0930 cp         1 EK1      -0.148500
      9 C19          5.9870     0.1730    -1.4700 ca         1 EK1      -0.095000
     10 C17          4.7330     0.2700    -2.0460 ca         1 EK1      -0.111500
     11 C87          3.5860     0.1570    -1.2660 ca         1 EK1      -0.123600
     12 C22          3.7190    -0.0170     0.1090 ca         1 EK1      -0.111500
     13 C97          2.2490     0.2800    -1.9270 c          1 EK1       0.684700
     14 O99          2.0990     0.9940    -2.9080 o          1 EK1      -0.606100
     15 N99          1.2700    -0.4570    -1.3790 ns         1 EK1      -0.554900
     16 C15         -0.1310    -0.3240    -1.7140 c3         1 EK1       0.161300
     17 C8          -0.9610     0.0040    -0.5010 ca         1 EK1      -0.165300
     18 C9          -0.7550     1.2020     0.1990 ca         1 EK1       0.135100
     19 O3           0.1990     2.0150    -0.2880 os         1 EK1      -0.328900
     20 C12          0.5900     3.1590     0.4520 c3         1 EK1       0.145400
     21 C13          1.7900     3.7770    -0.2350 c3         1 EK1      -0.084400
     22 C14          2.2580     5.0340     0.4840 c3         1 EK1      -0.087100
     23 C10         -1.5260     1.4810     1.3230 ca         1 EK1      -0.223000
     24 C11         -2.4920     0.5750     1.7440 ca         1 EK1      -0.086000
     25 C6          -2.7160    -0.6200     1.0720 ca         1 EK1      -0.082300
     26 C5          -3.7790    -1.5780     1.5310 c3         1 EK1      -0.020100
     27 C2          -5.2050    -1.1350     1.1600 c3         1 EK1      -0.184700
     28 C3          -5.4010    -1.1330    -0.3590 c3         1 EK1      -0.016100
     29 C4          -6.7550    -0.6230    -0.7610 ca         1 EK1      -0.039300
     30 C51         -7.0000     0.7480    -0.8240 ca         1 EK1      -0.114500
     31 C52         -8.2540     1.2380    -1.1610 ca         1 EK1      -0.139000
     32 C53         -9.2920     0.3590    -1.4460 ca         1 EK1      -0.151000
     33 C54         -9.0620    -1.0090    -1.3890 ca         1 EK1      -0.139000
     34 C55         -7.8050    -1.4940    -1.0480 ca         1 EK1      -0.114500
     35 C7          -1.9290    -0.8800    -0.0490 ca         1 EK1      -0.090000
     36 C1          -6.2220    -2.0620     1.8540 c          1 EK1       0.927600
     37 O1          -6.2550    -3.2440     1.4530 o          1 EK1      -0.836300
     38 O2          -6.9080    -1.5750     2.7750 o          1 EK1      -0.836300
     39 H1           8.7580    -0.5930     3.4550 h4         1 EK1       0.022600
     40 H2          10.8610    -0.4210     2.0870 ha         1 EK1       0.150000
     41 H3          10.5710    -0.0280    -0.3810 h4         1 EK1       0.022600
     42 H5           6.8680     0.2440    -2.0920 ha         1 EK1       0.152000
     43 H6           4.6470     0.4190    -3.1140 ha         1 EK1       0.147500
     44 H7           2.8450    -0.0680     0.7470 ha         1 EK1       0.147500
     45 H8          -0.2200     0.4490    -2.4760 h1         1 EK1       0.061700
     46 H9          -0.2340     3.8810     0.5070 h1         1 EK1       0.028200
     47 H10          2.6000     3.0440    -0.2700 hc         1 EK1       0.058200
     48 H11          2.5440     4.8230     1.5160 hc         1 EK1       0.030367
     49 H12          3.1240     5.4660    -0.0160 hc         1 EK1       0.030367
     50 H13          1.4770     5.7960     0.5070 hc         1 EK1       0.030367
     51 H14         -1.3930     2.3990     1.8790 ha         1 EK1       0.125000
     52 H15         -3.0770     0.8150     2.6260 ha         1 EK1       0.139000
     53 H16         -3.5940    -2.5700     1.1110 hc         1 EK1       0.053200
     54 H17         -3.7180    -1.6840     2.6190 hc         1 EK1       0.053200
     55 H18         -5.3520    -0.1140     1.5290 hc         1 EK1       0.038700
     56 H19         -4.6320    -0.5080    -0.8220 hc         1 EK1       0.033700
     57 H20         -5.2520    -2.1480    -0.7340 hc         1 EK1       0.033700
     58 H21         -6.1950     1.4420    -0.6090 ha         1 EK1       0.134500
     59 H22         -8.4210     2.3070    -1.2060 ha         1 EK1       0.111000
     60 H23        -10.2700     0.7370    -1.7150 ha         1 EK1       0.107000
     61 H24         -9.8620    -1.7030    -1.6130 ha         1 EK1       0.111000
     62 H25         -7.6360    -2.5620    -0.9970 ha         1 EK1       0.134500
     63 H26         -2.0690    -1.8100    -0.5910 ha         1 EK1       0.132000
     64 H28          1.4970    -1.0870    -0.6270 hn         1 EK1       0.312500
     65 H29         -0.4960    -1.2520    -2.1590 h1         1 EK1       0.061700
     66 H30          0.8460     2.8780     1.4800 h1         1 EK1       0.028200
     67 H31          1.5330     4.0130    -1.2700 hc         1 EK1       0.058200
     68 H4           5.0590    -0.2230     1.7600 ha         1 EK1       0.152000
@<TRIPOS>BOND
     1     1     2 ar  
     2     1     6 ar  
     3     2     3 ar  
     4     2     8 1   
     5     3     4 ar  
     6     4     5 ar  
     7     4    39 1   
     8     5     6 ar  
     9     5    40 1   
    10     6    41 1   
    11     7     8 ar  
    12     7    12 ar  
    13     7    68 1   
    14     8     9 ar  
    15     9    10 ar  
    16     9    42 1   
    17    10    11 ar  
    18    10    43 1   
    19    11    12 ar  
    20    11    13 1   
    21    12    44 1   
    22    13    14 2   
    23    13    15 1   
    24    15    16 1   
    25    15    64 1   
    26    16    17 1   
    27    16    45 1   
    28    16    65 1   
    29    17    18 ar  
    30    17    35 ar  
    31    18    19 1   
    32    18    23 ar  
    33    19    20 1   
    34    20    21 1   
    35    20    46 1   
    36    20    66 1   
    37    21    22 1   
    38    21    47 1   
    39    21    67 1   
    40    22    48 1   
    41    22    49 1   
    42    22    50 1   
    43    23    24 ar  
    44    23    51 1   
    45    24    25 ar  
    46    24    52 1   
    47    25    26 1   
    48    25    35 ar  
    49    26    27 1   
    50    26    53 1   
    51    26    54 1   
    52    27    28 1   
    53    27    36 1   
    54    27    55 1   
    55    28    29 1   
    56    28    56 1   
    57    28    57 1   
    58    29    30 ar  
    59    29    34 ar  
    60    30    31 ar  
    61    30    58 1   
    62    31    32 ar  
    63    31    59 1   
    64    32    33 ar  
    65    32    60 1   
    66    33    34 ar  
    67    33    61 1   
    68    34    62 1   
    69    35    63 1   
    70    36    37 1   
    71    36    38 1   
@<TRIPOS>SUBSTRUCTURE
     1 EK1         1 TEMP              0 ****  ****    0 ROOT
