@<TRIPOS>MOLECULE
EK2
   42    45     1     0     0
SMALL
abcg2


@<TRIPOS>ATOM
      1 O1          22.4520     4.4440    14.0450 o          1 EK2      -0.632100
      2 C14         21.7310     5.4400    13.8660 c          1 EK2       0.641700
      3 N4          22.1410     6.4770    13.1020 n          1 EK2      -0.403800
      4 C18         23.5140     6.4780    12.5930 c6         1 EK2       0.070500
      5 C17         24.0000     7.9080    12.4520 c6         1 EK2       0.142100
      6 O2          23.1990     8.6800    11.5470 os         1 EK2      -0.460000
      7 C16         21.8650     8.1940    11.3980 c6         1 EK2       0.142100
      8 C15         21.3080     7.6070    12.6820 c6         1 EK2       0.070500
      9 C12         20.4120     5.4760    14.5220 cc         1 EK2      -0.240600
     10 C11         19.4340     6.4250    14.7850 cd         1 EK2      -0.119000
     11 N3          20.0070     4.3120    15.1350 na         1 EK2      -0.066000
     12 C13         18.8250     4.4840    15.7640 cc         1 EK2      -0.121000
     13 C10         18.4290     5.8030    15.5710 cd         1 EK2      -0.142000
     14 C9          17.2080     6.4200    16.0560 cd         1 EK2      -0.015000
     15 N2          16.5230     7.3230    15.3120 na         1 EK2      -0.012200
     16 N1          15.3910     7.7590    15.8990 nd         1 EK2      -0.513800
     17 C8          15.3470     7.1120    17.0570 cc         1 EK2       0.263900
     18 C7          16.4630     6.2590    17.2270 cc         1 EK2      -0.177000
     19 C3          16.7690     5.4470    18.4070 ca         1 EK2       0.037000
     20 C2          15.7360     4.8110    19.1040 ca         1 EK2      -0.105000
     21 C4          18.0820     5.3210    18.8760 ca         1 EK2      -0.105000
     22 C5          18.3360     4.5600    20.0030 ca         1 EK2       0.130000
     23 CL2         19.9840     4.4080    20.5720 cl         1 EK2      -0.204000
     24 C6          17.3260     3.9180    20.7080 ca         1 EK2      -0.104000
     25 C1          16.0300     4.0660    20.2360 ca         1 EK2       0.130000
     26 CL1         14.7270     3.2730    21.0920 cl         1 EK2      -0.204000
     27 H16         23.5700     5.9540    11.6340 h1         1 EK2       0.063700
     28 H15         24.1490     5.9460    13.2980 h1         1 EK2       0.063700
     29 H14         25.0190     7.9120    12.0660 h1         1 EK2       0.056450
     30 H13         24.0000     8.3900    13.4360 h1         1 EK2       0.056450
     31 H11         21.2510     9.0420    11.0940 h1         1 EK2       0.056450
     32 H12         21.8280     7.4410    10.6030 h1         1 EK2       0.056450
     33 H10         21.2770     8.3760    13.4590 h1         1 EK2       0.063700
     34 H9          20.2930     7.2660    12.4920 h1         1 EK2       0.063700
     35 H7          19.4370     7.4600    14.4950 ha         1 EK2       0.134000
     36 H2          20.5600     3.4680    15.1160 hn         1 EK2       0.378000
     37 H8          18.3410     3.6790    16.2890 h4         1 EK2       0.167000
     38 H1          16.7590     7.6360    14.3830 hn         1 EK2       0.372000
     39 H6          14.5400     7.2900    17.7510 h4         1 EK2       0.041100
     40 H3          14.7160     4.8870    18.7570 ha         1 EK2       0.138000
     41 H4          18.8930     5.8190    18.3670 ha         1 EK2       0.138000
     42 H5          17.5410     3.3280    21.5870 ha         1 EK2       0.145000
@<TRIPOS>BOND
     1     1     2 2   
     2     2     3 1   
     3     2     9 1   
     4     3     4 1   
     5     3     8 1   
     6     4     5 1   
     7     4    27 1   
     8     4    28 1   
     9     5     6 1   
    10     5    29 1   
    11     5    30 1   
    12     6     7 1   
    13     7     8 1   
    14     7    31 1   
    15     7    32 1   
    16     8    33 1   
    17     8    34 1   
    18     9    10 2   
    19     9    11 1   
    20    10    13 1   
    21    10    35 1   
    22    11    12 1   
    23    11    36 1   
    24    12    13 2   
    25    12    37 1   
    26    13    14 1   
    27    14    15 1   
    28    14    18 2   
    29    15    16 1   
    30    15    38 1   
    31    16    17 2   
    32    17    18 1   
    33    17    39 1   
    34    18    19 1   
    35    19    20 ar  
    36    19    21 ar  
    37    20    25 ar  
    38    20    40 1   
    39    21    22 ar  
    40    21    41 1   
    41    22    23 1   
    42    22    24 ar  
    43    24    25 ar  
    44    24    42 1   
    45    25    26 1   
@<TRIPOS>SUBSTRUCTURE
     1 EK2         1 TEMP              0 ****  ****    0 ROOT
