@<TRIPOS>MOLECULE
EK2
   42    45     1     0     0
SMALL
No Charge or Current Charge


@<TRIPOS>ATOM
      1 O1          22.8540     4.7170    14.3460 o          1 EK2      -0.632100
      2 C14         22.0120     5.5820    14.1340 c          1 EK2       0.641700
      3 N4          22.2640     6.5610    13.1280 n          1 EK2      -0.403800
      4 C18         23.6680     6.6950    12.5980 c6         1 EK2       0.070500
      5 C17         23.8480     7.5470    11.3160 c6         1 EK2       0.142100
      6 O2          23.0390     8.7310    11.3730 os         1 EK2      -0.460000
      7 C16         21.6390     8.4130    11.4270 c6         1 EK2       0.142100
      8 C15         21.2990     7.6310    12.7220 c6         1 EK2       0.070500
      9 C12         20.7430     5.5500    14.9400 cc         1 EK2      -0.240600
     10 C11         19.7020     6.4520    15.0480 cd         1 EK2      -0.119000
     11 N3          20.4020     4.5170    15.8290 na         1 EK2      -0.066000
     12 C13         19.1680     4.7430    16.4380 cc         1 EK2      -0.121000
     13 C10         18.7610     5.9650    15.9790 cd         1 EK2      -0.142000
     14 C9          17.5100     6.6170    16.3100 cd         1 EK2      -0.015000
     15 N2          16.9620     7.6520    15.5450 na         1 EK2      -0.012200
     16 N1          15.6370     7.9190    15.8910 nd         1 EK2      -0.513800
     17 C8          15.4380     7.0920    16.9010 cc         1 EK2       0.263900
     18 C7          16.5640     6.3310    17.2660 cc         1 EK2      -0.177000
     19 C3          16.6620     5.3410    18.3430 ca         1 EK2       0.037000
     20 C2          15.5150     4.6230    18.7400 ca         1 EK2      -0.105000
     21 C4          17.8470     5.1870    19.0910 ca         1 EK2      -0.105000
     22 C5          17.9060     4.2790    20.1610 ca         1 EK2       0.130000
     23 Cl2         19.4020     4.0880    21.0660 cl         1 EK2      -0.204000
     24 C6          16.7730     3.5340    20.5180 ca         1 EK2      -0.104000
     25 C1          15.5760     3.7150    19.8100 ca         1 EK2       0.130000
     26 Cl1         14.1420     2.8060    20.2690 cl         1 EK2      -0.204000
     27 H16         24.0810     5.6970    12.3950 h1         1 EK2       0.063700
     28 H15         24.2880     7.1360    13.3910 h1         1 EK2       0.063700
     29 H14         23.5610     6.9570    10.4340 h1         1 EK2       0.056450
     30 H13         24.9040     7.8310    11.2020 h1         1 EK2       0.056450
     31 H11         21.0530     9.3410    11.3860 h1         1 EK2       0.056450
     32 H12         21.3740     7.8090    10.5460 h1         1 EK2       0.056450
     33 H10         21.2320     8.3620    13.5400 h1         1 EK2       0.063700
     34 H9          20.3090     7.1810    12.5700 h1         1 EK2       0.063700
     35 H7          19.5990     7.4090    14.5580 ha         1 EK2       0.134000
     36 H2          20.9750     3.6910    15.9830 hn         1 EK2       0.378000
     37 H8          18.7050     4.0110    17.0860 h4         1 EK2       0.167000
     38 H1          17.4120     8.1190    14.7610 hn         1 EK2       0.372000
     39 H6          14.4690     7.0940    17.3840 h4         1 EK2       0.041100
     40 H3          14.5770     4.7510    18.2070 ha         1 EK2       0.138000
     41 H4          18.7220     5.7870    18.8570 ha         1 EK2       0.138000
     42 H5          16.8180     2.8340    21.3470 ha         1 EK2       0.145000
@<TRIPOS>BOND
     1     1     2 2   
     2     2     3 1   
     3     2     9 1   
     4     3     4 1   
     5     3     8 1   
     6     4     5 1   
     7     4    27 1   
     8     4    28 1   
     9     5     6 1   
    10     5    29 1   
    11     5    30 1   
    12     6     7 1   
    13     7     8 1   
    14     7    31 1   
    15     7    32 1   
    16     8    33 1   
    17     8    34 1   
    18     9    10 2   
    19     9    11 1   
    20    10    13 1   
    21    10    35 1   
    22    11    12 1   
    23    11    36 1   
    24    12    13 2   
    25    12    37 1   
    26    13    14 1   
    27    14    15 1   
    28    14    18 2   
    29    15    16 1   
    30    15    38 1   
    31    16    17 2   
    32    17    18 1   
    33    17    39 1   
    34    18    19 1   
    35    19    20 ar  
    36    19    21 ar  
    37    20    25 ar  
    38    20    40 1   
    39    21    22 ar  
    40    21    41 1   
    41    22    23 1   
    42    22    24 ar  
    43    24    25 ar  
    44    24    42 1   
    45    25    26 1   
@<TRIPOS>SUBSTRUCTURE
     1 EK2         1 TEMP              0 ****  ****    0 ROOT
