@<TRIPOS>MOLECULE
EK3
   46    49     1     0     0
SMALL
No Charge or Current Charge


@<TRIPOS>ATOM
      1 F           -6.7360    -1.9300    -0.0720 f          1 EK3      -0.180000
      2 C1          -5.6840    -1.0830    -0.0700 ca         1 EK3       0.175000
      3 C6          -5.8650     0.2550     0.3040 ca         1 EK3      -0.159000
      4 C5          -4.7710     1.1390     0.3000 ca         1 EK3      -0.060000
      5 C4          -3.4750     0.6870    -0.0480 ca         1 EK3      -0.137500
      6 C3          -3.3240    -0.6560    -0.4680 ca         1 EK3      -0.060000
      7 C2          -4.4190    -1.5380    -0.4650 ca         1 EK3      -0.159000
      8 C7          -2.3480     1.6390    -0.0980 cc         1 EK3       0.325500
      9 C9          -0.9630     1.3260    -0.1020 cc         1 EK3      -0.153000
     10 C8          -0.2910     2.4960    -0.3110 cd         1 EK3      -0.156000
     11 N2          -1.2900     3.4610    -0.4550 na         1 EK3       0.004800
     12 N1          -2.5680     2.9250    -0.3220 nd         1 EK3      -0.517800
     13 C10         -0.2120     0.1340     0.3140 ca         1 EK3       0.080000
     14 C14         -0.7360    -0.7970     1.2270 ca         1 EK3      -0.219000
     15 C13          0.0330    -1.9060     1.6110 ca         1 EK3       0.386900
     16 N3           1.2840    -2.1280     1.1550 nb         1 EK3      -0.759000
     17 C12          1.7830    -1.2290     0.3140 ca         1 EK3       0.624900
     18 C11          1.0980    -0.0950    -0.1390 ca         1 EK3      -0.239000
     19 N4           3.0460    -1.5760    -0.0680 nu         1 EK3      -0.940100
     20 C15          4.0670    -0.6510    -0.5710 c6         1 EK3       0.242500
     21 C20          4.4970     0.3400     0.5460 c6         1 EK3      -0.093400
     22 C19          5.6310     1.2770     0.0580 c6         1 EK3      -0.071900
     23 C18          6.8440     0.4670    -0.4600 c6         1 EK3      -0.077400
     24 C17          6.4210    -0.5300    -1.5680 c6         1 EK3      -0.071900
     25 C16          5.2870    -1.4640    -1.0760 c6         1 EK3      -0.093400
     26 H5          -6.8520     0.6080     0.5920 ha         1 EK3       0.132000
     27 H4          -4.9320     2.1750     0.5900 ha         1 EK3       0.127000
     28 H3          -2.3660    -1.0190    -0.8290 ha         1 EK3       0.127000
     29 H2          -4.2910    -2.5700    -0.7830 ha         1 EK3       0.132000
     30 H6           0.7680     2.7330    -0.3190 h4         1 EK3       0.159000
     31 H1          -1.1460     4.4570    -0.6240 hn         1 EK3       0.376000
     32 H9          -1.7200    -0.6630     1.6640 ha         1 EK3       0.130000
     33 H8          -0.3620    -2.6360     2.3170 h4         1 EK3       0.014100
     34 H7           1.5680     0.5810    -0.8440 ha         1 EK3       0.120000
     35 H10          3.3510    -2.4130     0.4180 hn         1 EK3       0.494000
     36 H11          3.6710    -0.0760    -1.4220 h1         1 EK3       0.057700
     37 H20          3.6400     0.9450     0.8680 hc         1 EK3       0.047450
     38 H21          4.8370    -0.2170     1.4300 hc         1 EK3       0.047450
     39 H19          5.2530     1.9300    -0.7410 hc         1 EK3       0.041450
     40 H18          5.9460     1.9380     0.8770 hc         1 EK3       0.041450
     41 H17          7.6120     1.1510    -0.8480 hc         1 EK3       0.041700
     42 H16          7.3070    -0.0800     0.3730 hc         1 EK3       0.041700
     43 H15          6.0860     0.0240    -2.4560 hc         1 EK3       0.041450
     44 H14          7.2870    -1.1280    -1.8820 hc         1 EK3       0.041450
     45 H13          5.6690    -2.1090    -0.2720 hc         1 EK3       0.047450
     46 H12          4.9790    -2.1300    -1.8940 hc         1 EK3       0.047450
@<TRIPOS>BOND
     1     1     2 1   
     2     2     3 ar  
     3     2     7 ar  
     4     3     4 ar  
     5     3    26 1   
     6     4     5 ar  
     7     4    27 1   
     8     5     6 ar  
     9     5     8 1   
    10     6     7 ar  
    11     6    28 1   
    12     7    29 1   
    13     8     9 1   
    14     8    12 2   
    15     9    10 2   
    16     9    13 1   
    17    10    11 1   
    18    10    30 1   
    19    11    12 1   
    20    11    31 1   
    21    13    14 ar  
    22    13    18 ar  
    23    14    15 ar  
    24    14    32 1   
    25    15    16 ar  
    26    15    33 1   
    27    16    17 ar  
    28    17    18 ar  
    29    17    19 1   
    30    18    34 1   
    31    19    20 1   
    32    19    35 1   
    33    20    21 1   
    34    20    25 1   
    35    20    36 1   
    36    21    22 1   
    37    21    37 1   
    38    21    38 1   
    39    22    23 1   
    40    22    39 1   
    41    22    40 1   
    42    23    24 1   
    43    23    41 1   
    44    23    42 1   
    45    24    25 1   
    46    24    43 1   
    47    24    44 1   
    48    25    45 1   
    49    25    46 1   
@<TRIPOS>SUBSTRUCTURE
     1 EK3         1 TEMP              0 ****  ****    0 ROOT
