@<TRIPOS>MOLECULE
EK3
   46    49     1     0     0
SMALL
abcg2


@<TRIPOS>ATOM
      1 F           -6.1820    -2.1530    -1.0040 f          1 EK3      -0.180000
      2 C1          -5.2250    -1.2410    -0.7720 ca         1 EK3       0.175000
      3 C6          -5.5840    -0.0030    -0.2760 ca         1 EK3      -0.159000
      4 C5          -4.5880     0.9300    -0.0360 ca         1 EK3      -0.060000
      5 C4          -3.2480     0.6350    -0.2870 ca         1 EK3      -0.137500
      6 C3          -2.9270    -0.6230    -0.7970 ca         1 EK3      -0.060000
      7 C2          -3.9100    -1.5690    -1.0400 ca         1 EK3      -0.159000
      8 C7          -2.2090     1.6450    -0.0550 cc         1 EK3       0.325500
      9 C9          -0.8760     1.4760     0.4010 cc         1 EK3      -0.153000
     10 C8          -0.3530     2.7520     0.3850 cd         1 EK3      -0.156000
     11 N2          -1.3310     3.5610    -0.0370 na         1 EK3       0.004800
     12 N1          -2.4560     2.9200    -0.3150 nd         1 EK3      -0.517800
     13 C10         -0.1800     0.2700     0.8520 ca         1 EK3       0.080000
     14 C14         -0.7900    -0.6410     1.7220 ca         1 EK3      -0.219000
     15 C13         -0.0530    -1.7360     2.1250 ca         1 EK3       0.386900
     16 N3           1.1900    -1.9910     1.7380 nb         1 EK3      -0.759000
     17 C12          1.7800    -1.1330     0.8990 ca         1 EK3       0.624900
     18 C11          1.1200     0.0240     0.4430 ca         1 EK3      -0.239000
     19 N4           3.0280    -1.4700     0.4920 nu         1 EK3      -0.940100
     20 C15          3.9180    -0.6430    -0.2900 c6         1 EK3       0.242500
     21 C20          4.6800     0.3770     0.5610 c6         1 EK3      -0.093400
     22 C19          5.6240     1.2190    -0.2920 c6         1 EK3      -0.071900
     23 C18          6.5880     0.3390    -1.0800 c6         1 EK3      -0.077400
     24 C17          5.8330    -0.6840    -1.9220 c6         1 EK3      -0.071900
     25 C16          4.8880    -1.5260    -1.0710 c6         1 EK3      -0.093400
     26 H5          -6.6220     0.2300    -0.0780 ha         1 EK3       0.132000
     27 H4          -4.8610     1.8990     0.3610 ha         1 EK3       0.127000
     28 H3          -1.8990    -0.8720    -1.0230 ha         1 EK3       0.127000
     29 H2          -3.6540    -2.5420    -1.4380 ha         1 EK3       0.132000
     30 H6           0.6180     3.1240     0.6710 h4         1 EK3       0.159000
     31 H1          -1.2820     4.5610    -0.1560 hn         1 EK3       0.376000
     32 H9          -1.7950    -0.4890     2.0880 ha         1 EK3       0.130000
     33 H8          -0.4920    -2.4550     2.8090 h4         1 EK3       0.014100
     34 H7           1.6050     0.7100    -0.2380 ha         1 EK3       0.120000
     35 H10          3.4340    -2.2570     0.9740 hn         1 EK3       0.494000
     36 H11          3.3150    -0.1010    -1.0280 h1         1 EK3       0.057700
     37 H20          3.9740     1.0170     1.0970 hc         1 EK3       0.047450
     38 H21          5.2560    -0.1630     1.3220 hc         1 EK3       0.047450
     39 H19          5.0380     1.8300    -0.9880 hc         1 EK3       0.041450
     40 H18          6.1750     1.9170     0.3430 hc         1 EK3       0.041450
     41 H17          7.2280     0.9540    -1.7160 hc         1 EK3       0.041700
     42 H16          7.2520    -0.1850    -0.3830 hc         1 EK3       0.041700
     43 H15          5.2550    -0.1630    -2.6930 hc         1 EK3       0.041450
     44 H14          6.5340    -1.3350    -2.4500 hc         1 EK3       0.041450
     45 H13          5.4710    -2.1310    -0.3650 hc         1 EK3       0.047450
     46 H12          4.3260    -2.2220    -1.6980 hc         1 EK3       0.047450
@<TRIPOS>BOND
     1     1     2 1   
     2     2     3 ar  
     3     2     7 ar  
     4     3     4 ar  
     5     3    26 1   
     6     4     5 ar  
     7     4    27 1   
     8     5     6 ar  
     9     5     8 1   
    10     6     7 ar  
    11     6    28 1   
    12     7    29 1   
    13     8     9 1   
    14     8    12 2   
    15     9    10 2   
    16     9    13 1   
    17    10    11 1   
    18    10    30 1   
    19    11    12 1   
    20    11    31 1   
    21    13    14 ar  
    22    13    18 ar  
    23    14    15 ar  
    24    14    32 1   
    25    15    16 ar  
    26    15    33 1   
    27    16    17 ar  
    28    17    18 ar  
    29    17    19 1   
    30    18    34 1   
    31    19    20 1   
    32    19    35 1   
    33    20    21 1   
    34    20    25 1   
    35    20    36 1   
    36    21    22 1   
    37    21    37 1   
    38    21    38 1   
    39    22    23 1   
    40    22    39 1   
    41    22    40 1   
    42    23    24 1   
    43    23    41 1   
    44    23    42 1   
    45    24    25 1   
    46    24    43 1   
    47    24    44 1   
    48    25    45 1   
    49    25    46 1   
@<TRIPOS>SUBSTRUCTURE
     1 EK3         1 TEMP              0 ****  ****    0 ROOT
