@<TRIPOS>MOLECULE
EK4
   51    54     1     0     0
SMALL
abcg2


@<TRIPOS>ATOM
      1 O1          15.6730     4.2350    18.1320 o          1 EK4      -0.622100
      2 C15         16.2160     4.5200    17.0570 c          1 EK4       0.639700
      3 N4          15.5610     5.1150    16.0400 ns         1 EK4      -0.477900
      4 C16         14.1920     5.5880    16.1620 c3         1 EK4       0.164000
      5 C18         14.0910     6.9200    16.8870 ca         1 EK4      -0.111300
      6 C23         15.0650     7.9040    16.7280 ca         1 EK4      -0.094500
      7 C22         14.9380     9.1330    17.3680 ca         1 EK4      -0.107500
      8 C21         13.8320     9.3910    18.1720 ca         1 EK4      -0.105000
      9 C20         12.8560     8.4120    18.3350 ca         1 EK4      -0.107500
     10 C19         12.9880     7.1840    17.6960 ca         1 EK4      -0.094500
     11 C17         13.5630     5.6970    14.7780 c3         1 EK4       0.149600
     12 O2          13.5080     4.3970    14.1950 oh         1 EK4      -0.661000
     13 C13         17.6370     4.2240    16.8330 cc         1 EK4      -0.237600
     14 C12         18.5140     4.5120    15.8040 cd         1 EK4      -0.106000
     15 N3          18.3470     3.5720    17.8090 na         1 EK4      -0.062000
     16 C14         19.6420     3.4380    17.4380 cc         1 EK4      -0.155000
     17 C11         19.7910     4.0190    16.1820 cd         1 EK4      -0.133000
     18 C10         21.0230     4.1120    15.4190 cd         1 EK4      -0.015000
     19 N2          21.9410     3.1140    15.4060 na         1 EK4      -0.014200
     20 N1          23.0060     3.3720    14.6200 nd         1 EK4      -0.514800
     21 C9          22.7590     4.5720    14.1100 cc         1 EK4       0.260900
     22 C8          21.5320     5.1020    14.5740 cc         1 EK4      -0.173000
     23 C4          20.9750     6.4200    14.2580 ca         1 EK4       0.017000
     24 C3          20.2870     7.1680    15.2200 ca         1 EK4      -0.061000
     25 C5          21.1400     6.9740    12.9830 ca         1 EK4      -0.082000
     26 C6          20.6280     8.2290    12.6750 ca         1 EK4      -0.114000
     27 C7          19.9270     8.9540    13.6280 ca         1 EK4      -0.071000
     28 C2          19.7600     8.4110    14.9010 ca         1 EK4      -0.193300
     29 C1          19.0280     9.2070    15.9400 c3         1 EK4       0.341300
     30 F1          17.9160     9.7960    15.4410 f          1 EK4      -0.114667
     31 F2          19.7860    10.2140    16.4480 f          1 EK4      -0.114667
     32 F3          18.6350     8.4600    16.9920 f          1 EK4      -0.114667
     33 H11         16.0700     5.3460    15.2010 hn         1 EK4       0.319500
     34 H3          13.6350     4.8420    16.7300 h1         1 EK4       0.094700
     35 H19         15.9330     7.7090    16.1120 ha         1 EK4       0.112000
     36 H18         15.7040     9.8870    17.2380 ha         1 EK4       0.116500
     37 H17         13.7330    10.3470    18.6720 ha         1 EK4       0.114000
     38 H16         11.9960     8.6020    18.9650 ha         1 EK4       0.116500
     39 H15         12.2300     6.4210    17.8300 ha         1 EK4       0.112000
     40 H12         14.1580     6.3790    14.1590 h1         1 EK4       0.033200
     41 H13         12.5610     6.1210    14.8870 h1         1 EK4       0.033200
     42 H14         13.1890     4.4840    13.2890 ho         1 EK4       0.445000
     43 H9          18.2790     5.0220    14.8850 ha         1 EK4       0.140000
     44 H2          17.9420     3.2640    18.6810 hn         1 EK4       0.376000
     45 H10         20.3690     2.9670    18.0780 h4         1 EK4       0.154000
     46 H1          21.8680     2.2240    15.8750 hn         1 EK4       0.372000
     47 H8          23.4720     5.0400    13.4480 h4         1 EK4       0.038100
     48 H4          20.1630     6.7720    16.2170 ha         1 EK4       0.139000
     49 H5          21.6630     6.4090    12.2220 ha         1 EK4       0.121000
     50 H6          20.7650     8.6360    11.6820 ha         1 EK4       0.121000
     51 H7          19.5140     9.9240    13.3860 ha         1 EK4       0.128000
@<TRIPOS>BOND
     1     1     2 2   
     2     2     3 1   
     3     2    13 1   
     4     3     4 1   
     5     3    33 1   
     6     4     5 1   
     7     4    11 1   
     8     4    34 1   
     9     5     6 ar  
    10     5    10 ar  
    11     6     7 ar  
    12     6    35 1   
    13     7     8 ar  
    14     7    36 1   
    15     8     9 ar  
    16     8    37 1   
    17     9    10 ar  
    18     9    38 1   
    19    10    39 1   
    20    11    12 1   
    21    11    40 1   
    22    11    41 1   
    23    12    42 1   
    24    13    14 2   
    25    13    15 1   
    26    14    17 1   
    27    14    43 1   
    28    15    16 1   
    29    15    44 1   
    30    16    17 2   
    31    16    45 1   
    32    17    18 1   
    33    18    19 1   
    34    18    22 2   
    35    19    20 1   
    36    19    46 1   
    37    20    21 2   
    38    21    22 1   
    39    21    47 1   
    40    22    23 1   
    41    23    24 ar  
    42    23    25 ar  
    43    24    28 ar  
    44    24    48 1   
    45    25    26 ar  
    46    25    49 1   
    47    26    27 ar  
    48    26    50 1   
    49    27    28 ar  
    50    27    51 1   
    51    28    29 1   
    52    29    30 1   
    53    29    31 1   
    54    29    32 1   
@<TRIPOS>SUBSTRUCTURE
     1 EK4         1 TEMP              0 ****  ****    0 ROOT
