@<TRIPOS>MOLECULE
EK4
   51    54     1     0     0
SMALL
No Charge or Current Charge


@<TRIPOS>ATOM
      1 O1          15.4500     3.3550    17.6100 o          1 EK4      -0.622100
      2 C15         16.1970     4.0370    16.9230 c          1 EK4       0.639700
      3 N4          15.7920     5.1860    16.2870 ns         1 EK4      -0.477900
      4 C16         14.4320     5.7330    16.2940 c3         1 EK4       0.164000
      5 C18         14.5090     7.2550    16.4080 ca         1 EK4      -0.111300
      6 C23         15.0450     8.0330    15.3590 ca         1 EK4      -0.094500
      7 C22         15.1210     9.4310    15.4780 ca         1 EK4      -0.107500
      8 C21         14.6680    10.0640    16.6460 ca         1 EK4      -0.105000
      9 C20         14.1400     9.2970    17.6980 ca         1 EK4      -0.107500
     10 C19         14.0610     7.8980    17.5800 ca         1 EK4      -0.094500
     11 C17         13.6050     5.2900    15.0500 c3         1 EK4       0.149600
     12 O2          13.4080     3.8650    15.0160 oh         1 EK4      -0.661000
     13 C13         17.6270     3.7090    16.7150 cc         1 EK4      -0.237600
     14 C12         18.5230     4.4380    15.9700 cd         1 EK4      -0.106000
     15 N3          18.3510     2.6120    17.2040 na         1 EK4      -0.062000
     16 C14         19.6750     2.6470    16.7520 cc         1 EK4      -0.155000
     17 C11         19.7820     3.8040    16.0260 cd         1 EK4      -0.133000
     18 C10         21.0200     4.1870    15.3790 cd         1 EK4      -0.015000
     19 N2          22.0890     3.3120    15.1610 na         1 EK4      -0.014200
     20 N1          23.0250     3.8400    14.2670 nd         1 EK4      -0.514800
     21 C9          22.5370     5.0440    14.0270 cc         1 EK4       0.260900
     22 C8          21.3660     5.3530    14.7430 cc         1 EK4      -0.173000
     23 C4          20.5890     6.5970    14.7150 ca         1 EK4       0.017000
     24 C3          19.9590     7.0840    15.8800 ca         1 EK4      -0.061000
     25 C5          20.5650     7.3900    13.5520 ca         1 EK4      -0.082000
     26 C6          19.8530     8.6010    13.5310 ca         1 EK4      -0.114000
     27 C7          19.1830     9.0500    14.6810 ca         1 EK4      -0.071000
     28 C2          19.2410     8.2980    15.8740 ca         1 EK4      -0.193300
     29 C1          18.5550     8.7660    17.1620 c3         1 EK4       0.341300
     30 F1          17.9590     9.9740    17.0390 f          1 EK4      -0.114667
     31 F2          19.4370     8.8710    18.1810 f          1 EK4      -0.114667
     32 F3          17.6000     7.8940    17.5570 f          1 EK4      -0.114667
     33 H11         16.5000     5.6860    15.7720 hn         1 EK4       0.319500
     34 H3          13.9100     5.3500    17.1820 h1         1 EK4       0.094700
     35 H19         15.4100     7.5580    14.4510 ha         1 EK4       0.112000
     36 H18         15.5370    10.0230    14.6650 ha         1 EK4       0.116500
     37 H17         14.7300    11.1460    16.7390 ha         1 EK4       0.114000
     38 H16         13.7920     9.7860    18.6050 ha         1 EK4       0.116500
     39 H15         13.6530     7.3170    18.4040 ha         1 EK4       0.112000
     40 H12         14.1200     5.6200    14.1380 h1         1 EK4       0.033200
     41 H13         12.6330     5.8000    15.0800 h1         1 EK4       0.033200
     42 H14         12.8910     3.6650    14.2040 ho         1 EK4       0.445000
     43 H9          18.2840     5.3230    15.3930 ha         1 EK4       0.140000
     44 H2          17.9580     1.8800    17.7920 hn         1 EK4       0.376000
     45 H10         20.3980     1.8810    17.0040 h4         1 EK4       0.154000
     46 H1          22.1680     2.3610    15.5160 hn         1 EK4       0.372000
     47 H8          23.0820     5.6970    13.3570 h4         1 EK4       0.038100
     48 H4          20.0380     6.5150    16.8040 ha         1 EK4       0.139000
     49 H5          21.0780     7.0560    12.6530 ha         1 EK4       0.121000
     50 H6          19.8210     9.1940    12.6200 ha         1 EK4       0.121000
     51 H7          18.6360     9.9900    14.6400 ha         1 EK4       0.128000
@<TRIPOS>BOND
     1     1     2 2   
     2     2     3 1   
     3     2    13 1   
     4     3     4 1   
     5     3    33 1   
     6     4     5 1   
     7     4    11 1   
     8     4    34 1   
     9     5     6 ar  
    10     5    10 ar  
    11     6     7 ar  
    12     6    35 1   
    13     7     8 ar  
    14     7    36 1   
    15     8     9 ar  
    16     8    37 1   
    17     9    10 ar  
    18     9    38 1   
    19    10    39 1   
    20    11    12 1   
    21    11    40 1   
    22    11    41 1   
    23    12    42 1   
    24    13    14 2   
    25    13    15 1   
    26    14    17 1   
    27    14    43 1   
    28    15    16 1   
    29    15    44 1   
    30    16    17 2   
    31    16    45 1   
    32    17    18 1   
    33    18    19 1   
    34    18    22 2   
    35    19    20 1   
    36    19    46 1   
    37    20    21 2   
    38    21    22 1   
    39    21    47 1   
    40    22    23 1   
    41    23    24 ar  
    42    23    25 ar  
    43    24    28 ar  
    44    24    48 1   
    45    25    26 ar  
    46    25    49 1   
    47    26    27 ar  
    48    26    50 1   
    49    27    28 ar  
    50    27    51 1   
    51    28    29 1   
    52    29    30 1   
    53    29    31 1   
    54    29    32 1   
@<TRIPOS>SUBSTRUCTURE
     1 EK4         1 TEMP              0 ****  ****    0 ROOT
