@<TRIPOS>MOLECULE
EK5
   49    53     1     0     0
SMALL
abcg2


@<TRIPOS>ATOM
      1 O1          15.3480     3.4840    18.2430 o          1 EK5      -0.617100
      2 C14         15.8830     4.0230    17.2670 c          1 EK5       0.635700
      3 N4          15.2010     4.7780    16.3780 ns         1 EK5      -0.489900
      4 C15         13.8250     5.1770    16.5850 c3         1 EK5       0.157300
      5 C16         13.6490     6.4100    17.4550 ca         1 EK5      -0.144300
      6 C23         14.7170     7.2330    17.8000 ca         1 EK5      -0.067000
      7 C22         14.5390     8.3770    18.5840 ca         1 EK5      -0.128000
      8 C21         13.2560     8.6720    19.0060 ca         1 EK5       0.123100
      9 O2          12.9100     9.7540    19.7650 os         1 EK5      -0.341100
     10 C20         11.5170     9.5730    20.1720 c5         1 EK5       0.148600
     11 C19         10.9230     8.4990    19.2400 c5         1 EK5      -0.050100
     12 C18         12.1680     7.8700    18.6690 ca         1 EK5      -0.163300
     13 C17         12.3600     6.7400    17.8970 ca         1 EK5      -0.053000
     14 C12         17.3230     3.8760    17.0200 cc         1 EK5      -0.247600
     15 C11         18.1810     4.4370    16.0940 cd         1 EK5      -0.103000
     16 N3          18.0790     3.0930    17.8590 na         1 EK5      -0.065000
     17 C13         19.3840     3.1440    17.4990 cc         1 EK5      -0.154000
     18 C10         19.4920     3.9800    16.3920 cd         1 EK5      -0.126000
     19 C9          20.7120     4.3280    15.6850 cd         1 EK5      -0.021000
     20 N2          21.7530     3.4680    15.5610 na         1 EK5      -0.015200
     21 N1          22.7790     3.9660    14.8410 nd         1 EK5      -0.515800
     22 C8          22.3780     5.1820    14.4890 cc         1 EK5       0.261900
     23 C7          21.0910     5.4810    14.9920 cc         1 EK5      -0.168000
     24 C3          20.3540     6.7390    14.8310 ca         1 EK5       0.024000
     25 C2          19.6440     7.2970    15.9010 ca         1 EK5      -0.102000
     26 C4          20.3580     7.4130    13.6050 ca         1 EK5      -0.107000
     27 C5          19.6570     8.6020    13.4460 ca         1 EK5      -0.102000
     28 C6          18.9320     9.1460    14.5010 ca         1 EK5      -0.108000
     29 C1          18.9410     8.4760    15.7170 ca         1 EK5       0.121000
     30 CL          18.0380     9.1410    17.0670 cl         1 EK5      -0.220000
     31 H10         15.7110     5.2200    15.6320 hn         1 EK5       0.319500
     32 H12         13.3870     5.3550    15.6010 h1         1 EK5       0.064700
     33 H11         13.2880     4.3390    17.0290 h1         1 EK5       0.064700
     34 H19         15.7150     6.9860    17.4630 ha         1 EK5       0.117000
     35 H18         15.3770     9.0060    18.8520 ha         1 EK5       0.132000
     36 H17         11.0280    10.5410    20.0980 h1         1 EK5       0.058700
     37 H16         11.5200     9.2440    21.2120 h1         1 EK5       0.058700
     38 H15         10.3150     8.9440    18.4490 hc         1 EK5       0.062200
     39 H14         10.2960     7.7950    19.7860 hc         1 EK5       0.062200
     40 H13         11.5190     6.1080    17.6320 ha         1 EK5       0.113000
     41 H8          17.9130     5.1070    15.2950 ha         1 EK5       0.143000
     42 H2          17.6970     2.5800    18.6390 hn         1 EK5       0.375000
     43 H9          20.1410     2.6090    18.0470 h4         1 EK5       0.154000
     44 H1          21.7950     2.5210    15.9030 hn         1 EK5       0.370000
     45 H7          23.0250     5.8230    13.9090 h4         1 EK5       0.039100
     46 H3          19.6390     6.8120    16.8650 ha         1 EK5       0.136000
     47 H4          20.8980     6.9910    12.7680 ha         1 EK5       0.120000
     48 H5          19.6650     9.1090    12.4900 ha         1 EK5       0.118000
     49 H6          18.3740    10.0640    14.3830 ha         1 EK5       0.130000
@<TRIPOS>BOND
     1     1     2 2   
     2     2     3 1   
     3     2    14 1   
     4     3     4 1   
     5     3    31 1   
     6     4     5 1   
     7     4    32 1   
     8     4    33 1   
     9     5     6 ar  
    10     5    13 ar  
    11     6     7 ar  
    12     6    34 1   
    13     7     8 ar  
    14     7    35 1   
    15     8     9 1   
    16     8    12 ar  
    17     9    10 1   
    18    10    11 1   
    19    10    36 1   
    20    10    37 1   
    21    11    12 1   
    22    11    38 1   
    23    11    39 1   
    24    12    13 ar  
    25    13    40 1   
    26    14    15 2   
    27    14    16 1   
    28    15    18 1   
    29    15    41 1   
    30    16    17 1   
    31    16    42 1   
    32    17    18 2   
    33    17    43 1   
    34    18    19 1   
    35    19    20 1   
    36    19    23 2   
    37    20    21 1   
    38    20    44 1   
    39    21    22 2   
    40    22    23 1   
    41    22    45 1   
    42    23    24 1   
    43    24    25 ar  
    44    24    26 ar  
    45    25    29 ar  
    46    25    46 1   
    47    26    27 ar  
    48    26    47 1   
    49    27    28 ar  
    50    27    48 1   
    51    28    29 ar  
    52    28    49 1   
    53    29    30 1   
@<TRIPOS>SUBSTRUCTURE
     1 EK5         1 TEMP              0 ****  ****    0 ROOT
