@<TRIPOS>MOLECULE
EK5
   49    53     1     0     0
SMALL
No Charge or Current Charge


@<TRIPOS>ATOM
      1 O1          14.6360     2.2940    16.4250 o          1 EK5      -0.617100
      2 C14         15.4000     3.2440    16.3370 c          1 EK5       0.635700
      3 N4          14.9690     4.5450    16.3630 ns         1 EK5      -0.489900
      4 C15         13.5880     4.9740    16.5270 c3         1 EK5       0.157300
      5 C16         13.5520     6.4760    16.7530 ca         1 EK5      -0.144300
      6 C23         13.5670     7.3600    15.6470 ca         1 EK5      -0.067000
      7 C22         13.5850     8.7550    15.8510 ca         1 EK5      -0.128000
      8 C21         13.5990     9.2370    17.1650 ca         1 EK5       0.123100
      9 O2          13.6200    10.5620    17.5010 os         1 EK5      -0.341100
     10 C20         13.9140    10.5730    18.9400 c5         1 EK5       0.148600
     11 C19         13.5650     9.1540    19.5260 c5         1 EK5      -0.050100
     12 C18         13.5730     8.3860    18.2430 ca         1 EK5      -0.163300
     13 C17         13.5510     6.9950    18.0670 ca         1 EK5      -0.053000
     14 C12         16.8700     3.1040    16.2090 cc         1 EK5      -0.247600
     15 C11         17.7640     4.1400    16.0740 cd         1 EK5      -0.103000
     16 N3          17.6430     1.9360    16.1820 na         1 EK5      -0.065000
     17 C13         19.0010     2.2410    16.0340 cc         1 EK5      -0.154000
     18 C10         19.0690     3.6100    16.0070 cd         1 EK5      -0.126000
     19 C9          20.3260     4.3090    15.8430 cd         1 EK5      -0.021000
     20 N2          21.5090     3.6930    15.4180 na         1 EK5      -0.015200
     21 N1          22.4870     4.6240    15.0630 nd         1 EK5      -0.515800
     22 C8          21.9010     5.7730    15.3490 cc         1 EK5       0.261900
     23 C7          20.6170     5.6500    15.9130 cc         1 EK5      -0.168000
     24 C3          19.7120     6.7240    16.3340 ca         1 EK5       0.024000
     25 C2          18.8830     6.5770    17.4660 ca         1 EK5      -0.102000
     26 C4          19.7480     7.9740    15.6820 ca         1 EK5      -0.107000
     27 C5          18.9090     9.0240    16.0960 ca         1 EK5      -0.102000
     28 C6          18.0460     8.8450    17.1910 ca         1 EK5      -0.108000
     29 C1          18.0440     7.6230    17.8800 ca         1 EK5       0.121000
     30 Cl          16.9960     7.4030    19.2740 cl         1 EK5      -0.220000
     31 H10         15.6800     5.2590    16.3010 hn         1 EK5       0.319500
     32 H12         13.0170     4.7100    15.6260 h1         1 EK5       0.064700
     33 H11         13.1430     4.4500    17.3840 h1         1 EK5       0.064700
     34 H19         13.5730     6.9660    14.6330 ha         1 EK5       0.117000
     35 H18         13.6000     9.4420    15.0100 ha         1 EK5       0.132000
     36 H17         13.3570    11.3830    19.4290 h1         1 EK5       0.058700
     37 H16         14.9860    10.7780    19.0620 h1         1 EK5       0.058700
     38 H15         12.5820     9.1410    20.0100 hc         1 EK5       0.062200
     39 H14         14.3100     8.8060    20.2500 hc         1 EK5       0.062200
     40 H13         13.5460     6.3310    18.9290 ha         1 EK5       0.113000
     41 H8          17.4990     5.1850    15.9800 ha         1 EK5       0.143000
     42 H2          17.2650     0.9940    16.2530 hn         1 EK5       0.375000
     43 H9          19.7680     1.4780    15.9830 h4         1 EK5       0.154000
     44 H1          21.6490     2.6940    15.2830 hn         1 EK5       0.370000
     45 H7          22.4500     6.6890    15.1740 h4         1 EK5       0.039100
     46 H3          18.8930     5.6490    18.0320 ha         1 EK5       0.136000
     47 H4          20.4090     8.1250    14.8320 ha         1 EK5       0.120000
     48 H5          18.9280     9.9760    15.5700 ha         1 EK5       0.118000
     49 H6          17.3940     9.6530    17.5130 ha         1 EK5       0.130000
@<TRIPOS>BOND
     1     1     2 2   
     2     2     3 1   
     3     2    14 1   
     4     3     4 1   
     5     3    31 1   
     6     4     5 1   
     7     4    32 1   
     8     4    33 1   
     9     5     6 ar  
    10     5    13 ar  
    11     6     7 ar  
    12     6    34 1   
    13     7     8 ar  
    14     7    35 1   
    15     8     9 1   
    16     8    12 ar  
    17     9    10 1   
    18    10    11 1   
    19    10    36 1   
    20    10    37 1   
    21    11    12 1   
    22    11    38 1   
    23    11    39 1   
    24    12    13 ar  
    25    13    40 1   
    26    14    15 2   
    27    14    16 1   
    28    15    18 1   
    29    15    41 1   
    30    16    17 1   
    31    16    42 1   
    32    17    18 2   
    33    17    43 1   
    34    18    19 1   
    35    19    20 1   
    36    19    23 2   
    37    20    21 1   
    38    20    44 1   
    39    21    22 2   
    40    22    23 1   
    41    22    45 1   
    42    23    24 1   
    43    24    25 ar  
    44    24    26 ar  
    45    25    29 ar  
    46    25    46 1   
    47    26    27 ar  
    48    26    47 1   
    49    27    28 ar  
    50    27    48 1   
    51    28    29 ar  
    52    28    49 1   
    53    29    30 1   
@<TRIPOS>SUBSTRUCTURE
     1 EK5         1 TEMP              0 ****  ****    0 ROOT
