@<TRIPOS>MOLECULE
EK6
   65    68     1     0     0
SMALL
No Charge or Current Charge


@<TRIPOS>ATOM
      1 Cl2         18.0750     9.4390    16.9810 cl         1 EK6      -0.213000
      2 C27         19.0530     8.5550    15.8100 ca         1 EK6       0.130000
      3 C6          19.4660     9.1430    14.5930 ca         1 EK6      -0.131300
      4 C5          19.1050    10.5780    14.2110 c3         1 EK6       0.205100
      5 N1          18.0420    10.5960    13.1800 n7         1 EK6      -0.846400
      6 C4          16.6620    10.2010    13.6310 c3         1 EK6       0.107800
      7 C3          15.9050    11.2080    14.5590 c          1 EK6       0.596100
      8 O2          16.4060    12.1950    15.0900 o          1 EK6      -0.519000
      9 O1          14.5710    10.8930    14.6400 os         1 EK6      -0.423100
     10 C2          13.7150    11.7570    15.4050 c3         1 EK6       0.158600
     11 C1          12.2850    11.2050    15.2970 c3         1 EK6      -0.095100
     12 C26         19.4330     7.2400    16.1270 ca         1 EK6      -0.106000
     13 C9          20.2060     6.4730    15.2340 ca         1 EK6       0.036000
     14 C8          20.6480     7.0760    14.0410 ca         1 EK6      -0.108000
     15 C7          20.2720     8.3900    13.7180 ca         1 EK6      -0.101000
     16 C10         20.6860     5.1330    15.5910 cc         1 EK6      -0.173000
     17 C12         19.9980     4.1530    16.2660 cd         1 EK6      -0.016000
     18 N3          20.9020     3.0940    16.4040 na         1 EK6      -0.014200
     19 N2          22.0870     3.3170    15.7010 nd         1 EK6      -0.514800
     20 C11         21.9020     4.5310    15.2160 cc         1 EK6       0.262900
     21 C13         18.6070     4.0710    16.6620 cd         1 EK6      -0.130000
     22 C25         17.5140     4.8760    16.2710 cd         1 EK6      -0.105000
     23 C15         16.3760     4.3920    16.8760 cc         1 EK6      -0.240600
     24 N4          16.7880     3.2810    17.6230 na         1 EK6      -0.063000
     25 C14         18.1590     3.0580    17.4680 cc         1 EK6      -0.154000
     26 C16         15.0060     4.9380    16.7400 c          1 EK6       0.638700
     27 O3          14.0400     4.4600    17.3170 o          1 EK6      -0.620100
     28 N5          14.9060     6.0280    15.9130 ns         1 EK6      -0.482900
     29 C17         13.6570     6.7310    15.6090 c3         1 EK6       0.170000
     30 C18         13.7300     7.4730    14.2470 c3         1 EK6       0.141600
     31 O4          14.0980     6.5740    13.1840 oh         1 EK6      -0.667000
     32 C19         13.2790     7.6840    16.7420 ca         1 EK6      -0.104300
     33 C24         14.2210     8.6000    17.2580 ca         1 EK6      -0.048000
     34 C23         13.8680     9.4740    18.3000 ca         1 EK6       0.078000
     35 Cl1         15.0680    10.6030    18.9300 cl         1 EK6      -0.186000
     36 C22         12.5640     9.4410    18.8280 ca         1 EK6       0.178000
     37 F           12.2080    10.2810    19.8270 f          1 EK6      -0.167000
     38 C21         11.6200     8.5350    18.3200 ca         1 EK6      -0.142000
     39 C20         11.9760     7.6570    17.2810 ca         1 EK6      -0.067000
     40 H1          20.0110    11.0580    13.8160 h1         1 EK6       0.075200
     41 H2          18.8190    11.1630    15.0950 h1         1 EK6       0.075200
     42 H3          18.3370     9.9530    12.4340 hn         1 EK6       0.417000
     43 H5          16.0170    10.0670    12.7520 h1         1 EK6       0.059200
     44 H6          16.6800     9.2330    14.1500 h1         1 EK6       0.059200
     45 H7          13.7400    12.7820    15.0120 h1         1 EK6       0.052200
     46 H8          14.0230    11.7820    16.4580 h1         1 EK6       0.052200
     47 H9          11.5960    11.8210    15.8850 hc         1 EK6       0.047700
     48 H10         11.9480    11.2100    14.2540 hc         1 EK6       0.047700
     49 H11         12.2340    10.1780    15.6740 hc         1 EK6       0.047700
     50 H12         19.1490     6.8280    17.0910 ha         1 EK6       0.140000
     51 H13         21.2790     6.5210    13.3510 ha         1 EK6       0.122000
     52 H14         20.6200     8.8280    12.7840 ha         1 EK6       0.114000
     53 H15         20.7220     2.2110    16.8770 hn         1 EK6       0.372000
     54 H16         22.6920     4.9740    14.6250 h4         1 EK6       0.039100
     55 H17         17.5500     5.7010    15.5700 ha         1 EK6       0.141000
     56 H18         16.1670     2.7050    18.1850 hn         1 EK6       0.376000
     57 H19         18.6730     2.2350    17.9510 h4         1 EK6       0.154000
     58 H20         15.7460     6.3110    15.4300 hn         1 EK6       0.323500
     59 H21         12.8660     5.9740    15.5150 h1         1 EK6       0.089700
     60 H22         14.4630     8.2850    14.3250 h1         1 EK6       0.046700
     61 H23         12.7520     7.9300    14.0420 h1         1 EK6       0.046700
     62 H24         14.0520     7.0830    12.3430 ho         1 EK6       0.446000
     63 H25         15.2280     8.6350    16.8520 ha         1 EK6       0.133000
     64 H26         10.6140     8.5140    18.7320 ha         1 EK6       0.136000
     65 H27         11.2370     6.9570    16.8960 ha         1 EK6       0.123000
@<TRIPOS>BOND
     1     1     2 1   
     2     2     3 ar  
     3     2    12 ar  
     4     3     4 1   
     5     3    15 ar  
     6     4     5 1   
     7     4    40 1   
     8     4    41 1   
     9     5     6 1   
    10     5    42 1   
    11     6     7 1   
    12     6    43 1   
    13     6    44 1   
    14     7     8 2   
    15     7     9 1   
    16     9    10 1   
    17    10    11 1   
    18    10    45 1   
    19    10    46 1   
    20    11    47 1   
    21    11    48 1   
    22    11    49 1   
    23    12    13 ar  
    24    12    50 1   
    25    13    14 ar  
    26    13    16 1   
    27    14    15 ar  
    28    14    51 1   
    29    15    52 1   
    30    16    17 2   
    31    16    20 1   
    32    17    18 1   
    33    17    21 1   
    34    18    19 1   
    35    18    53 1   
    36    19    20 2   
    37    20    54 1   
    38    21    22 1   
    39    21    25 2   
    40    22    23 2   
    41    22    55 1   
    42    23    24 1   
    43    23    26 1   
    44    24    25 1   
    45    24    56 1   
    46    25    57 1   
    47    26    27 2   
    48    26    28 1   
    49    28    29 1   
    50    28    58 1   
    51    29    30 1   
    52    29    32 1   
    53    29    59 1   
    54    30    31 1   
    55    30    60 1   
    56    30    61 1   
    57    31    62 1   
    58    32    33 ar  
    59    32    39 ar  
    60    33    34 ar  
    61    33    63 1   
    62    34    35 1   
    63    34    36 ar  
    64    36    37 1   
    65    36    38 ar  
    66    38    39 ar  
    67    38    64 1   
    68    39    65 1   
@<TRIPOS>SUBSTRUCTURE
     1 EK6         1 TEMP              0 ****  ****    0 ROOT
