@<TRIPOS>MOLECULE
EK6
   65    68     1     0     0
SMALL
abcg2


@<TRIPOS>ATOM
      1 CL2         17.5430     9.6120    16.3170 cl         1 EK6      -0.213000
      2 C27         18.6360     8.7770    15.2190 ca         1 EK6       0.130000
      3 C6          18.8080     9.2290    13.9110 ca         1 EK6      -0.131300
      4 C5          18.0840    10.4190    13.3210 c3         1 EK6       0.205100
      5 N1          16.9360    10.0840    12.4660 n7         1 EK6      -0.846400
      6 C4          15.8890     9.2920    13.0860 c3         1 EK6       0.107800
      7 C3          14.9340    10.0430    13.9940 c          1 EK6       0.596100
      8 O2          13.9950     9.4920    14.5290 o          1 EK6      -0.519000
      9 O1          15.2220    11.3320    14.1490 os         1 EK6      -0.423100
     10 C2          14.3800    12.0920    15.0560 c3         1 EK6       0.158600
     11 C1          14.9750    13.4740    15.1750 c3         1 EK6      -0.095100
     12 C26         19.2930     7.6610    15.7150 ca         1 EK6      -0.106000
     13 C9          20.1390     6.9150    14.8910 ca         1 EK6       0.036000
     14 C8          20.3310     7.3570    13.5760 ca         1 EK6      -0.108000
     15 C7          19.6840     8.4900    13.1110 ca         1 EK6      -0.101000
     16 C10         20.8150     5.7120    15.3840 cc         1 EK6      -0.173000
     17 C12         20.3420     4.7410    16.2730 cd         1 EK6      -0.016000
     18 N3          21.3620     3.8610    16.4290 na         1 EK6      -0.014200
     19 N2          22.4600     4.1770    15.7140 nd         1 EK6      -0.514800
     20 C11         22.1310     5.2940    15.0760 cc         1 EK6       0.262900
     21 C13         19.0590     4.5720    16.9320 cd         1 EK6      -0.130000
     22 C25         17.7910     4.9600    16.4260 cd         1 EK6      -0.105000
     23 C15         16.8460     4.6480    17.3850 cc         1 EK6      -0.240600
     24 N4          17.5080     4.0740    18.4420 na         1 EK6      -0.063000
     25 C14         18.8380     4.0220    18.1910 cc         1 EK6      -0.154000
     26 C16         15.3980     4.8650    17.4650 c          1 EK6       0.638700
     27 O3          14.7500     4.5030    18.4540 o          1 EK6      -0.620100
     28 N5          14.8340     5.4910    16.4100 ns         1 EK6      -0.482900
     29 C17         13.4280     5.8410    16.3630 c3         1 EK6       0.170000
     30 C18         13.0340     6.1410    14.9210 c3         1 EK6       0.141600
     31 O4          13.2350     4.9650    14.1400 oh         1 EK6      -0.667000
     32 C19         13.0830     7.0260    17.2510 ca         1 EK6      -0.104300
     33 C24         14.0190     8.0220    17.5090 ca         1 EK6      -0.048000
     34 C23         13.6770     9.1150    18.2930 ca         1 EK6       0.078000
     35 CL1         14.8420    10.3640    18.6290 cl         1 EK6      -0.186000
     36 C22         12.3930     9.2120    18.8120 ca         1 EK6       0.178000
     37 F           12.0610    10.2710    19.5780 f          1 EK6      -0.167000
     38 C21         11.4490     8.2340    18.5630 ca         1 EK6      -0.142000
     39 C20         11.8010     7.1410    17.7830 ca         1 EK6      -0.067000
     40 H1          18.7840    10.9800    12.7020 h1         1 EK6       0.075200
     41 H2          17.7420    11.0830    14.1110 h1         1 EK6       0.075200
     42 H3          17.2660     9.5950    11.6430 hn         1 EK6       0.417000
     43 H5          15.2720     8.8550    12.2990 h1         1 EK6       0.059200
     44 H6          16.2590     8.4470    13.6860 h1         1 EK6       0.059200
     45 H7          14.3580    11.5750    16.0150 h1         1 EK6       0.052200
     46 H8          13.3690    12.1140    14.6490 h1         1 EK6       0.052200
     47 H9          14.3650    14.0720    15.8550 hc         1 EK6       0.047700
     48 H10         15.9890    13.4280    15.5730 hc         1 EK6       0.047700
     49 H11         14.9990    13.9750    14.2060 hc         1 EK6       0.047700
     50 H12         19.1370     7.3690    16.7420 ha         1 EK6       0.140000
     51 H13         20.9820     6.8000    12.9140 ha         1 EK6       0.122000
     52 H14         19.8470     8.8150    12.0900 ha         1 EK6       0.114000
     53 H15         21.3460     3.0120    16.9730 hn         1 EK6       0.372000
     54 H16         22.8450     5.7850    14.4330 h4         1 EK6       0.039100
     55 H17         17.6050     5.4190    15.4700 ha         1 EK6       0.141000
     56 H18         17.0490     3.7640    19.2860 hn         1 EK6       0.376000
     57 H19         19.5330     3.6240    18.9110 h4         1 EK6       0.154000
     58 H20         15.4190     5.7820    15.6430 hn         1 EK6       0.323500
     59 H21         12.8510     4.9800    16.7070 h1         1 EK6       0.089700
     60 H22         13.6370     6.9740    14.5460 h1         1 EK6       0.046700
     61 H23         11.9840     6.4470    14.9070 h1         1 EK6       0.046700
     62 H24         13.1350     5.2000    13.2090 ho         1 EK6       0.446000
     63 H25         15.0190     7.9570    17.1050 ha         1 EK6       0.133000
     64 H26         10.4580     8.3340    18.9870 ha         1 EK6       0.136000
     65 H27         11.0680     6.3660    17.5910 ha         1 EK6       0.123000
@<TRIPOS>BOND
     1     1     2 1   
     2     2     3 ar  
     3     2    12 ar  
     4     3     4 1   
     5     3    15 ar  
     6     4     5 1   
     7     4    40 1   
     8     4    41 1   
     9     5     6 1   
    10     5    42 1   
    11     6     7 1   
    12     6    43 1   
    13     6    44 1   
    14     7     8 2   
    15     7     9 1   
    16     9    10 1   
    17    10    11 1   
    18    10    45 1   
    19    10    46 1   
    20    11    47 1   
    21    11    48 1   
    22    11    49 1   
    23    12    13 ar  
    24    12    50 1   
    25    13    14 ar  
    26    13    16 1   
    27    14    15 ar  
    28    14    51 1   
    29    15    52 1   
    30    16    17 2   
    31    16    20 1   
    32    17    18 1   
    33    17    21 1   
    34    18    19 1   
    35    18    53 1   
    36    19    20 2   
    37    20    54 1   
    38    21    22 1   
    39    21    25 2   
    40    22    23 2   
    41    22    55 1   
    42    23    24 1   
    43    23    26 1   
    44    24    25 1   
    45    24    56 1   
    46    25    57 1   
    47    26    27 2   
    48    26    28 1   
    49    28    29 1   
    50    28    58 1   
    51    29    30 1   
    52    29    32 1   
    53    29    59 1   
    54    30    31 1   
    55    30    60 1   
    56    30    61 1   
    57    31    62 1   
    58    32    33 ar  
    59    32    39 ar  
    60    33    34 ar  
    61    33    63 1   
    62    34    35 1   
    63    34    36 ar  
    64    36    37 1   
    65    36    38 ar  
    66    38    39 ar  
    67    38    64 1   
    68    39    65 1   
@<TRIPOS>SUBSTRUCTURE
     1 EK6         1 TEMP              0 ****  ****    0 ROOT
