@<TRIPOS>MOLECULE
EK7
   43    46     1     0     0
SMALL
bcc


@<TRIPOS>ATOM
      1 N5          -6.8780    -1.2790    -0.0710 n1         1 EK7      -0.364800
      2 C19         -5.8160    -0.8240    -0.0670 cg         1 EK7       0.266800
      3 C1          -4.5260    -0.2680    -0.0590 cc         1 EK7      -0.029100
      4 C2          -3.3470    -0.9380     0.1140 cd         1 EK7       0.002700
      5 C9          -3.1940    -2.3940     0.4030 c6         1 EK7      -0.024100
      6 C8          -2.0150    -2.9540    -0.3860 c6         1 EK7      -0.006100
      7 C7          -0.7950    -2.1000    -0.2210 ca         1 EK7      -0.365900
      8 C4          -0.8840    -0.7040    -0.0660 ca         1 EK7       0.595800
      9 C3          -2.2100    -0.0960    -0.0170 cd         1 EK7      -0.252500
     10 C16         -2.5520     1.2330    -0.2480 cc         1 EK7       0.265500
     11 N4          -1.7540     2.3280    -0.3770 nh         1 EK7      -0.606000
     12 C18         -2.2990     3.4670    -1.0910 c3         1 EK7       0.181100
     13 C17         -0.9460     2.7220     0.7710 c3         1 EK7       0.181100
     14 S           -4.2790     1.4210    -0.3430 ss         1 EK7      -0.112800
     15 C6           0.4870    -2.6030    -0.2680 ca         1 EK7       0.475200
     16 N2           1.5840    -1.8550    -0.1950 nb         1 EK7      -0.753000
     17 C5           1.3870    -0.5500    -0.0800 ca         1 EK7       0.915900
     18 N1           0.1990     0.0520    -0.0050 nb         1 EK7      -0.778000
     19 N3           2.4420     0.3120    -0.0160 nu         1 EK7      -0.737300
     20 C10          3.8140     0.1070    -0.0740 ca         1 EK7       0.220600
     21 C15          4.4290    -1.1320    -0.2760 ca         1 EK7      -0.193000
     22 C14          5.8150    -1.1920    -0.3250 ca         1 EK7      -0.062000
     23 C13          6.6100    -0.0680    -0.1790 ca         1 EK7      -0.255000
     24 C12          5.9910     1.1650     0.0230 ca         1 EK7       0.168100
     25 O            6.6880     2.3080     0.1780 oh         1 EK7      -0.497100
     26 C11          4.6070     1.2500     0.0750 ca         1 EK7      -0.235000
     27 H4          -3.0130    -2.5170     1.4750 hc         1 EK7       0.065700
     28 H5          -4.1070    -2.9410     0.1680 hc         1 EK7       0.065700
     29 H2          -1.8070    -3.9770    -0.0700 hc         1 EK7       0.055200
     30 H3          -2.2850    -3.0020    -1.4460 hc         1 EK7       0.055200
     31 H16         -3.0550     4.0090    -0.5080 h1         1 EK7       0.046867
     32 H15         -1.4890     4.1620    -1.3060 h1         1 EK7       0.046867
     33 H17         -2.7360     3.1560    -2.0380 h1         1 EK7       0.046867
     34 H14         -0.5800     1.8540     1.3050 h1         1 EK7       0.046867
     35 H12         -0.0860     3.2950     0.4260 h1         1 EK7       0.046867
     36 H13         -1.5310     3.3460     1.4550 h1         1 EK7       0.046867
     37 H1           0.6440    -3.6730    -0.3730 h4         1 EK7       0.022100
     38 H6           2.1520     1.2710     0.1040 hn         1 EK7       0.452800
     39 H11          3.8400    -2.0260    -0.3920 ha         1 EK7       0.170000
     40 H10          6.2880    -2.1530    -0.4830 ha         1 EK7       0.130000
     41 H9           7.6900    -0.1460    -0.2210 ha         1 EK7       0.133000
     42 H8           7.6330     2.1320     0.1240 ho         1 EK7       0.427000
     43 H7           4.1430     2.2160     0.2360 ha         1 EK7       0.142000
@<TRIPOS>BOND
     1     1     2 3   
     2     2     3 1   
     3     3     4 2   
     4     3    14 1   
     5     4     5 1   
     6     4     9 1   
     7     5     6 1   
     8     5    27 1   
     9     5    28 1   
    10     6     7 1   
    11     6    29 1   
    12     6    30 1   
    13     7     8 ar  
    14     7    15 ar  
    15     8     9 1   
    16     8    18 ar  
    17     9    10 2   
    18    10    11 1   
    19    10    14 1   
    20    11    12 1   
    21    11    13 1   
    22    12    31 1   
    23    12    32 1   
    24    12    33 1   
    25    13    34 1   
    26    13    35 1   
    27    13    36 1   
    28    15    16 ar  
    29    15    37 1   
    30    16    17 ar  
    31    17    18 ar  
    32    17    19 1   
    33    19    20 1   
    34    19    38 1   
    35    20    21 ar  
    36    20    26 ar  
    37    21    22 ar  
    38    21    39 1   
    39    22    23 ar  
    40    22    40 1   
    41    23    24 ar  
    42    23    41 1   
    43    24    25 1   
    44    24    26 ar  
    45    25    42 1   
    46    26    43 1   
@<TRIPOS>SUBSTRUCTURE
     1 EK7         1 TEMP              0 ****  ****    0 ROOT
