@<TRIPOS>MOLECULE
EK7
   43    46     1     0     0
SMALL
No Charge or Current Charge


@<TRIPOS>ATOM
      1 N5          -6.9510    -1.3100     0.6740 n1         1 EK7      -0.454000
      2 C19         -5.9060    -0.8330     0.4660 cg         1 EK7       0.356000
      3 C1          -4.6210    -0.2830     0.2150 cc         1 EK7      -0.174000
      4 C2          -3.4150    -0.9410     0.1940 cd         1 EK7       0.002700
      5 C9          -3.2350    -2.4260     0.4500 c6         1 EK7      -0.024100
      6 C8          -2.0350    -2.9850    -0.3460 c6         1 EK7      -0.006100
      7 C7          -0.8030    -2.0830    -0.2410 ca         1 EK7      -0.235300
      8 C4          -0.9340    -0.6800    -0.1480 ca         1 EK7       0.267500
      9 C3          -2.2920    -0.0940    -0.0720 cd         1 EK7      -0.252500
     10 C16         -2.6680     1.2320    -0.2140 cc         1 EK7       0.259000
     11 N4          -1.8370     2.3180    -0.4410 nh         1 EK7      -0.744400
     12 C18         -2.1290     3.2560    -1.5450 c3         1 EK7       0.181100
     13 C17         -1.0130     2.8610     0.6610 c3         1 EK7       0.181100
     14 S           -4.4230     1.4230    -0.1210 ss         1 EK7       0.177000
     15 C6           0.4960    -2.6170    -0.2710 ca         1 EK7       0.146900
     16 N2           1.5820    -1.8280    -0.1980 nb         1 EK7      -0.227000
     17 C5           1.3570    -0.5050    -0.1060 ca         1 EK7       0.389900
     18 N1           0.1610     0.1020    -0.0610 nb         1 EK7      -0.252000
     19 N3           2.4440     0.3530     0.0100 nu         1 EK7      -0.930900
     20 C10          3.8290     0.2050    -0.0820 ca         1 EK7       0.359000
     21 C15          4.4340    -0.8110    -0.8460 ca         1 EK7      -0.175000
     22 C14          5.8340    -0.9080    -0.9200 ca         1 EK7      -0.044000
     23 C13          6.6350     0.0190    -0.2340 ca         1 EK7      -0.237000
     24 C12          6.0340     1.0410     0.5130 ca         1 EK7       0.168100
     25 O            6.8050     1.9460     1.1730 oh         1 EK7      -0.536100
     26 C11          4.6380     1.1360     0.5850 ca         1 EK7      -0.217000
     27 H4          -3.0670    -2.5930     1.5220 hc         1 EK7       0.065700
     28 H5          -4.1370    -2.9960     0.1870 hc         1 EK7       0.065700
     29 H2          -1.8020    -4.0010     0.0020 hc         1 EK7       0.055200
     30 H3          -2.3160    -3.0790    -1.4040 hc         1 EK7       0.055200
     31 H16         -2.8490     4.0200    -1.2220 h1         1 EK7       0.046867
     32 H15         -1.2110     3.7620    -1.8760 h1         1 EK7       0.046867
     33 H17         -2.5520     2.7200    -2.4060 h1         1 EK7       0.046867
     34 H14         -0.9820     2.1630     1.5080 h1         1 EK7       0.046867
     35 H12          0.0150     3.0390     0.3200 h1         1 EK7       0.046867
     36 H13         -1.4290     3.8130     1.0190 h1         1 EK7       0.046867
     37 H1           0.6720    -3.6890    -0.3530 h4         1 EK7       0.022100
     38 H6           2.1590     1.2880     0.2940 hn         1 EK7       0.508000
     39 H11          3.8280    -1.5180    -1.4010 ha         1 EK7       0.152000
     40 H10          6.2950    -1.6970    -1.5120 ha         1 EK7       0.112000
     41 H9           7.7180    -0.0590    -0.2950 ha         1 EK7       0.115000
     42 H8           7.7460     1.7230     1.0090 ho         1 EK7       0.466000
     43 H7           4.1870     1.9320     1.1680 ha         1 EK7       0.124000
@<TRIPOS>BOND
     1     1     2 3   
     2     2     3 1   
     3     3     4 2   
     4     3    14 1   
     5     4     5 1   
     6     4     9 1   
     7     5     6 1   
     8     5    27 1   
     9     5    28 1   
    10     6     7 1   
    11     6    29 1   
    12     6    30 1   
    13     7     8 ar  
    14     7    15 ar  
    15     8     9 1   
    16     8    18 ar  
    17     9    10 2   
    18    10    11 1   
    19    10    14 1   
    20    11    12 1   
    21    11    13 1   
    22    12    31 1   
    23    12    32 1   
    24    12    33 1   
    25    13    34 1   
    26    13    35 1   
    27    13    36 1   
    28    15    16 ar  
    29    15    37 1   
    30    16    17 ar  
    31    17    18 ar  
    32    17    19 1   
    33    19    20 1   
    34    19    38 1   
    35    20    21 ar  
    36    20    26 ar  
    37    21    22 ar  
    38    21    39 1   
    39    22    23 ar  
    40    22    40 1   
    41    23    24 ar  
    42    23    41 1   
    43    24    25 1   
    44    24    26 ar  
    45    25    42 1   
    46    26    43 1   
@<TRIPOS>SUBSTRUCTURE
     1 EK7         1 TEMP              0 ****  ****    0 ROOT
