@<TRIPOS>MOLECULE
EK8
   75    78     1     0     0
SMALL
abcg2


@<TRIPOS>ATOM
      1 N89          7.3730     0.3020    -0.3240 nh         1 EK8      -0.810400
      2 C80          8.5270     0.3950     0.5530 c6         1 EK8       0.213300
      3 C81          9.6810     1.1130    -0.1330 c6         1 EK8      -0.084400
      4 C82         10.0340     0.4760    -1.4680 c6         1 EK8      -0.073400
      5 C83          8.7890     0.3890    -2.3380 c6         1 EK8      -0.084400
      6 C84          7.6690    -0.3310    -1.6030 c6         1 EK8       0.213300
      7 C99          4.9600     0.2470    -0.5850 ca         1 EK8      -0.191500
      8 C98          6.1120     0.1830     0.2230 ca         1 EK8       0.333000
      9 C19          5.9040     0.0290     1.6050 ca         1 EK8      -0.191500
     10 C17          4.6310    -0.0250     2.1400 ca         1 EK8      -0.037000
     11 C87          3.4980     0.0790     1.3400 ca         1 EK8      -0.189600
     12 C22          3.6940     0.2030    -0.0360 ca         1 EK8      -0.037000
     13 C97          2.1560     0.0170     1.9770 c          1 EK8       0.626700
     14 O99          1.9840    -0.5660     3.0410 o          1 EK8      -0.618100
     15 N99          1.1700     0.6660     1.3300 ns         1 EK8      -0.491900
     16 C15         -0.2320     0.5530     1.6670 c3         1 EK8       0.161300
     17 C8          -1.0510     0.0860     0.4940 ca         1 EK8      -0.163300
     18 C9          -0.8300    -1.1790    -0.0680 ca         1 EK8       0.135100
     19 O3           0.1220    -1.9270     0.5200 os         1 EK8      -0.351100
     20 C12          0.5400    -3.1370    -0.0870 c3         1 EK8       0.169600
     21 C13          1.7200    -3.6740     0.6960 c3         1 EK8      -0.084400
     22 C14          2.2160    -4.9920     0.1190 c3         1 EK8      -0.087100
     23 C10         -1.5830    -1.5860    -1.1650 ca         1 EK8      -0.206000
     24 C11         -2.5560    -0.7430    -1.6890 ca         1 EK8      -0.069000
     25 C6          -2.8020     0.5120    -1.1490 ca         1 EK8      -0.082300
     26 C5          -3.8800     1.3990    -1.7060 c3         1 EK8      -0.020100
     27 C2          -5.2990     0.9620    -1.3020 c3         1 EK8      -0.185700
     28 C3          -5.5000     1.0810     0.2110 c3         1 EK8      -0.015100
     29 C4          -6.8560     0.6090     0.6510 ca         1 EK8      -0.038300
     30 C51         -7.1100    -0.7510     0.8250 ca         1 EK8      -0.096000
     31 C52         -8.3670    -1.2040     1.2020 ca         1 EK8      -0.121000
     32 C53         -9.3990    -0.2980     1.4170 ca         1 EK8      -0.133000
     33 C54         -9.1590     1.0600     1.2500 ca         1 EK8      -0.121000
     34 C55         -7.9000     1.5060     0.8690 ca         1 EK8      -0.096000
     35 C7          -2.0280     0.9010    -0.0580 ca         1 EK8      -0.072000
     36 C1          -6.3330     1.8130    -2.0680 c          1 EK8       0.718000
     37 O1          -6.3610     3.0290    -1.7860 o          1 EK8      -0.730500
     38 O2          -7.0370     1.2340    -2.9180 o          1 EK8      -0.730500
     39 H1           8.2590     0.9600     1.4440 h1         1 EK8       0.038700
     40 H2           8.8510    -0.6030     0.8870 h1         1 EK8       0.038700
     41 H3           9.4010     2.1590    -0.2890 hc         1 EK8       0.047450
     42 H4          10.5400     1.1110     0.5410 hc         1 EK8       0.047450
     43 H5          10.8170     1.0480    -1.9700 hc         1 EK8       0.039200
     44 H6          10.4350    -0.5300    -1.3020 hc         1 EK8       0.039200
     45 H7           8.4530     1.3930    -2.6110 hc         1 EK8       0.047450
     46 H8           8.9980    -0.1430    -3.2680 hc         1 EK8       0.047450
     47 H9           7.9600    -1.3790    -1.4370 h1         1 EK8       0.038700
     48 H10          6.7800    -0.3490    -2.2270 h1         1 EK8       0.038700
     49 H12          6.7390    -0.0650     2.2840 ha         1 EK8       0.111000
     50 H13          4.5220    -0.1490     3.2100 ha         1 EK8       0.123000
     51 H14          2.8490     0.2500    -0.7130 ha         1 EK8       0.123000
     52 H15          1.3950     1.1960     0.5040 hn         1 EK8       0.309500
     53 H16         -0.3180    -0.1350     2.5060 h1         1 EK8       0.061200
     54 H17         -0.6120     1.5190     2.0090 h1         1 EK8       0.061200
     55 H18         -0.2780    -3.8680    -0.0930 h1         1 EK8       0.027200
     56 H19          0.8270    -2.9600    -1.1300 h1         1 EK8       0.027200
     57 H20          2.5240    -2.9340     0.6880 hc         1 EK8       0.059200
     58 H21          1.4290    -3.8130     1.7400 hc         1 EK8       0.059200
     59 H22          1.4380    -5.7570     0.1430 hc         1 EK8       0.029700
     60 H23          2.5380    -4.8810    -0.9180 hc         1 EK8       0.029700
     61 H24          3.0650    -5.3690     0.6880 hc         1 EK8       0.029700
     62 H25         -1.4310    -2.5570    -1.6170 ha         1 EK8       0.107000
     63 H26         -3.1300    -1.0820    -2.5450 ha         1 EK8       0.120000
     64 H27         -3.7210     2.4300    -1.3830 hc         1 EK8       0.053200
     65 H28         -3.8140     1.4000    -2.7990 hc         1 EK8       0.053200
     66 H29         -5.4270    -0.0880    -1.5880 hc         1 EK8       0.038700
     67 H30         -4.7320     0.4950     0.7240 hc         1 EK8       0.033200
     68 H31         -5.3520     2.1220     0.5080 hc         1 EK8       0.033200
     69 H32         -6.3100    -1.4660     0.6670 ha         1 EK8       0.116500
     70 H33         -8.5410    -2.2640     1.3330 ha         1 EK8       0.093000
     71 H34        -10.3790    -0.6470     1.7160 ha         1 EK8       0.089000
     72 H35         -9.9540     1.7750     1.4180 ha         1 EK8       0.093000
     73 H36         -7.7230     2.5660     0.7340 ha         1 EK8       0.116500
     74 H37         -2.1860     1.8830     0.3780 ha         1 EK8       0.114000
     75 H11          5.0430     0.3590    -1.6570 ha         1 EK8       0.111000
@<TRIPOS>BOND
     1     1     2 1   
     2     1     6 1   
     3     1     8 1   
     4     2     3 1   
     5     2    39 1   
     6     2    40 1   
     7     3     4 1   
     8     3    41 1   
     9     3    42 1   
    10     4     5 1   
    11     4    43 1   
    12     4    44 1   
    13     5     6 1   
    14     5    45 1   
    15     5    46 1   
    16     6    47 1   
    17     6    48 1   
    18     7     8 ar  
    19     7    12 ar  
    20     7    75 1   
    21     8     9 ar  
    22     9    10 ar  
    23     9    49 1   
    24    10    11 ar  
    25    10    50 1   
    26    11    12 ar  
    27    11    13 1   
    28    12    51 1   
    29    13    14 2   
    30    13    15 1   
    31    15    16 1   
    32    15    52 1   
    33    16    17 1   
    34    16    53 1   
    35    16    54 1   
    36    17    18 ar  
    37    17    35 ar  
    38    18    19 1   
    39    18    23 ar  
    40    19    20 1   
    41    20    21 1   
    42    20    55 1   
    43    20    56 1   
    44    21    22 1   
    45    21    57 1   
    46    21    58 1   
    47    22    59 1   
    48    22    60 1   
    49    22    61 1   
    50    23    24 ar  
    51    23    62 1   
    52    24    25 ar  
    53    24    63 1   
    54    25    26 1   
    55    25    35 ar  
    56    26    27 1   
    57    26    64 1   
    58    26    65 1   
    59    27    28 1   
    60    27    36 1   
    61    27    66 1   
    62    28    29 1   
    63    28    67 1   
    64    28    68 1   
    65    29    30 ar  
    66    29    34 ar  
    67    30    31 ar  
    68    30    69 1   
    69    31    32 ar  
    70    31    70 1   
    71    32    33 ar  
    72    32    71 1   
    73    33    34 ar  
    74    33    72 1   
    75    34    73 1   
    76    35    74 1   
    77    36    37 1   
    78    36    38 1   
@<TRIPOS>SUBSTRUCTURE
     1 EK8         1 TEMP              0 ****  ****    0 ROOT
