@<TRIPOS>MOLECULE
EK8
   75    78     1     0     0
SMALL
No Charge or Current Charge


@<TRIPOS>ATOM
      1 N89          7.5680     0.9210    -0.2360 nh         1 EK8      -0.810400
      2 C80          8.5740     1.8090     0.4140 c6         1 EK8       0.213300
      3 C81          9.5200     2.4450    -0.6360 c6         1 EK8      -0.084400
      4 C82         10.1850     1.3680    -1.5230 c6         1 EK8      -0.073400
      5 C83          9.1030     0.4690    -2.1670 c6         1 EK8      -0.084400
      6 C84          8.1680    -0.1410    -1.0940 c6         1 EK8       0.213300
      7 C99          5.1940     0.4210    -0.4710 ca         1 EK8      -0.191500
      8 C98          6.2980     0.7100     0.3470 ca         1 EK8       0.333000
      9 C19          6.1070     0.7840     1.7390 ca         1 EK8      -0.191500
     10 C17          4.8370     0.5710     2.3010 ca         1 EK8      -0.037000
     11 C87          3.7240     0.2800     1.4820 ca         1 EK8      -0.189600
     12 C22          3.9190     0.2080     0.0820 ca         1 EK8      -0.037000
     13 C97          2.3690     0.0560     2.1210 c          1 EK8       0.626700
     14 O99          2.2010     0.1140     3.3320 o          1 EK8      -0.618100
     15 N99          1.3240    -0.2210     1.2720 ns         1 EK8      -0.491900
     16 C15         -0.0410    -0.4950     1.7070 c3         1 EK8       0.161300
     17 C8          -0.9640    -0.6880     0.5110 ca         1 EK8      -0.163300
     18 C9          -1.0430    -1.9330    -0.1480 ca         1 EK8       0.135100
     19 O3          -0.2600    -2.9740     0.3130 os         1 EK8      -0.351100
     20 C12         -0.2570    -4.2700    -0.3070 c3         1 EK8       0.169600
     21 C13          0.7390    -5.1530     0.4680 c3         1 EK8      -0.084400
     22 C14          0.8440    -6.5830    -0.0980 c3         1 EK8      -0.087100
     23 C10         -1.9060    -2.0820    -1.2550 ca         1 EK8      -0.206000
     24 C11         -2.6820    -0.9980    -1.6990 ca         1 EK8      -0.069000
     25 C6          -2.6050     0.2450    -1.0460 ca         1 EK8      -0.082300
     26 C5          -3.4530     1.4190    -1.5290 c3         1 EK8      -0.020100
     27 C2          -4.9640     1.2600    -1.2060 c3         1 EK8      -0.185700
     28 C3          -5.2450     1.2160     0.3210 c3         1 EK8      -0.015100
     29 C4          -6.7010     0.9010     0.6450 ca         1 EK8      -0.038300
     30 C51         -7.1810    -0.4190     0.5340 ca         1 EK8      -0.096000
     31 C52         -8.5220    -0.7150     0.8350 ca         1 EK8      -0.121000
     32 C53         -9.3920     0.3080     1.2490 ca         1 EK8      -0.133000
     33 C54         -8.9200     1.6260     1.3620 ca         1 EK8      -0.121000
     34 C55         -7.5790     1.9220     1.0610 ca         1 EK8      -0.096000
     35 C7          -1.7430     0.3940     0.0560 ca         1 EK8      -0.072000
     36 C1          -5.7850     2.3720    -1.8980 c          1 EK8       0.718000
     37 O1          -5.5790     3.5360    -1.5840 o          1 EK8      -0.730500
     38 O2          -6.5860     2.0430    -2.7610 o          1 EK8      -0.730500
     39 H1           8.0720     2.6190     0.9640 h1         1 EK8       0.038700
     40 H2           9.1700     1.2350     1.1390 h1         1 EK8       0.038700
     41 H3           8.9490     3.1410    -1.2660 hc         1 EK8       0.047450
     42 H4          10.2890     3.0420    -0.1280 hc         1 EK8       0.047450
     43 H5          10.7950     1.8430    -2.3030 hc         1 EK8       0.039200
     44 H6          10.8660     0.7540    -0.9170 hc         1 EK8       0.039200
     45 H7           8.5070     1.0580    -2.8780 hc         1 EK8       0.047450
     46 H8           9.5770    -0.3350    -2.7460 hc         1 EK8       0.047450
     47 H9           8.7430    -0.8410    -0.4700 h1         1 EK8       0.038700
     48 H10          7.3870    -0.7260    -1.6000 h1         1 EK8       0.038700
     49 H12          6.9440     0.9950     2.3970 ha         1 EK8       0.111000
     50 H13          4.7220     0.6320     3.3820 ha         1 EK8       0.123000
     51 H14          3.0970    -0.0110    -0.5950 ha         1 EK8       0.123000
     52 H15          1.5250    -0.2660     0.2840 hn         1 EK8       0.309500
     53 H16         -0.0440    -1.3940     2.3370 h1         1 EK8       0.061200
     54 H17         -0.3950     0.3450     2.3210 h1         1 EK8       0.061200
     55 H18         -1.2570    -4.7220    -0.2660 h1         1 EK8       0.027200
     56 H19          0.0580    -4.1970    -1.3560 h1         1 EK8       0.027200
     57 H20          1.7310    -4.6840     0.4440 hc         1 EK8       0.059200
     58 H21          0.4320    -5.2050     1.5200 hc         1 EK8       0.059200
     59 H22         -0.1280    -7.0880    -0.0570 hc         1 EK8       0.029700
     60 H23          1.1820    -6.5630    -1.1410 hc         1 EK8       0.029700
     61 H24          1.5630    -7.1730     0.4840 hc         1 EK8       0.029700
     62 H25         -1.9890    -3.0270    -1.7840 ha         1 EK8       0.107000
     63 H26         -3.3440    -1.1240    -2.5520 ha         1 EK8       0.120000
     64 H27         -3.0870     2.3590    -1.0970 hc         1 EK8       0.053200
     65 H28         -3.3350     1.5230    -2.6150 hc         1 EK8       0.053200
     66 H29         -5.2880     0.3010    -1.6290 hc         1 EK8       0.038700
     67 H30         -4.6100     0.4520     0.7860 hc         1 EK8       0.033200
     68 H31         -4.9470     2.1690     0.7760 hc         1 EK8       0.033200
     69 H32         -6.5120    -1.2160     0.2150 ha         1 EK8       0.116500
     70 H33         -8.8860    -1.7360     0.7480 ha         1 EK8       0.093000
     71 H34        -10.4290     0.0790     1.4820 ha         1 EK8       0.089000
     72 H35         -9.5920     2.4190     1.6810 ha         1 EK8       0.093000
     73 H36         -7.2220     2.9460     1.1490 ha         1 EK8       0.116500
     74 H37         -1.6810     1.3540     0.5640 ha         1 EK8       0.114000
     75 H11          5.3210     0.3720    -1.5480 ha         1 EK8       0.111000
@<TRIPOS>BOND
     1     1     2 1   
     2     1     6 1   
     3     1     8 1   
     4     2     3 1   
     5     2    39 1   
     6     2    40 1   
     7     3     4 1   
     8     3    41 1   
     9     3    42 1   
    10     4     5 1   
    11     4    43 1   
    12     4    44 1   
    13     5     6 1   
    14     5    45 1   
    15     5    46 1   
    16     6    47 1   
    17     6    48 1   
    18     7     8 ar  
    19     7    12 ar  
    20     7    75 1   
    21     8     9 ar  
    22     9    10 ar  
    23     9    49 1   
    24    10    11 ar  
    25    10    50 1   
    26    11    12 ar  
    27    11    13 1   
    28    12    51 1   
    29    13    14 2   
    30    13    15 1   
    31    15    16 1   
    32    15    52 1   
    33    16    17 1   
    34    16    53 1   
    35    16    54 1   
    36    17    18 ar  
    37    17    35 ar  
    38    18    19 1   
    39    18    23 ar  
    40    19    20 1   
    41    20    21 1   
    42    20    55 1   
    43    20    56 1   
    44    21    22 1   
    45    21    57 1   
    46    21    58 1   
    47    22    59 1   
    48    22    60 1   
    49    22    61 1   
    50    23    24 ar  
    51    23    62 1   
    52    24    25 ar  
    53    24    63 1   
    54    25    26 1   
    55    25    35 ar  
    56    26    27 1   
    57    26    64 1   
    58    26    65 1   
    59    27    28 1   
    60    27    36 1   
    61    27    66 1   
    62    28    29 1   
    63    28    67 1   
    64    28    68 1   
    65    29    30 ar  
    66    29    34 ar  
    67    30    31 ar  
    68    30    69 1   
    69    31    32 ar  
    70    31    70 1   
    71    32    33 ar  
    72    32    71 1   
    73    33    34 ar  
    74    33    72 1   
    75    34    73 1   
    76    35    74 1   
    77    36    37 1   
    78    36    38 1   
@<TRIPOS>SUBSTRUCTURE
     1 EK8         1 TEMP              0 ****  ****    0 ROOT
