@<TRIPOS>MOLECULE
EKA
   25    25     1     0     0
SMALL
No Charge or Current Charge


@<TRIPOS>ATOM
      1 C02          2.9710     0.1110    -0.0450 c          1 EKA       0.689000
      2 C03          1.3770     0.4350     0.0040 c          1 EKA       0.476100
      3 C06         -1.0180    -0.5770    -0.0670 c6         1 EKA       0.115700
      4 C07         -1.5880    -0.0440     1.2750 c6         1 EKA      -0.089400
      5 C08         -3.1370    -0.0630     1.2670 c6         1 EKA      -0.071900
      6 C09         -3.7040     0.7100     0.0500 c6         1 EKA      -0.073400
      7 C10         -3.1450     0.1520    -1.2830 c6         1 EKA      -0.071900
      8 C11         -1.5960     0.1730    -1.2970 c6         1 EKA      -0.089400
      9 N04          0.4680    -0.6670    -0.0800 n          1 EKA      -0.281300
     10 O01          3.5000    -0.3810     0.9530 o          1 EKA      -0.696000
     11 O05          0.9850    -2.0010    -0.2430 oh         1 EKA      -0.440100
     12 O12          0.9620     1.5950     0.1130 o          1 EKA      -0.642100
     13 O13          3.6010     0.4110    -1.0590 o          1 EKA      -0.696000
     14 H1          -1.3890    -1.6090    -0.1530 h1         1 EKA       0.031700
     15 H2          -1.2140    -0.6540     2.1080 hc         1 EKA       0.058950
     16 H3          -1.2390     0.9810     1.4560 hc         1 EKA       0.058950
     17 H4          -3.4940    -1.1020     1.2420 hc         1 EKA       0.025950
     18 H5          -3.5200     0.3760     2.1990 hc         1 EKA       0.025950
     19 H6          -4.8000     0.6480     0.0480 hc         1 EKA       0.030200
     20 H7          -3.4520     1.7760     0.1390 hc         1 EKA       0.030200
     21 H8          -3.5020    -0.8770    -1.4310 hc         1 EKA       0.025950
     22 H9          -3.5330     0.7410    -2.1260 hc         1 EKA       0.025950
     23 H10         -1.2470     1.2140    -1.3070 hc         1 EKA       0.058950
     24 H11         -1.2270    -0.2900    -2.2230 hc         1 EKA       0.058950
     25 H12          1.1040    -2.3480     0.6710 ho         1 EKA       0.440000
@<TRIPOS>BOND
     1     1     2 1   
     2     1    10 1   
     3     1    13 1   
     4     2     9 1   
     5     2    12 2   
     6     3     4 1   
     7     3     8 1   
     8     3     9 1   
     9     3    14 1   
    10     4     5 1   
    11     4    15 1   
    12     4    16 1   
    13     5     6 1   
    14     5    17 1   
    15     5    18 1   
    16     6     7 1   
    17     6    19 1   
    18     6    20 1   
    19     7     8 1   
    20     7    21 1   
    21     7    22 1   
    22     8    23 1   
    23     8    24 1   
    24     9    11 1   
    25    11    25 1   
@<TRIPOS>SUBSTRUCTURE
     1 EKA         1 TEMP              0 ****  ****    0 ROOT
