@<TRIPOS>MOLECULE
EKA
   25    25     1     0     0
SMALL
abcg2


@<TRIPOS>ATOM
      1 C02          2.8050     0.0310    -0.0510 c          1 EKA       0.689000
      2 C03          1.3210     0.3890     0.1270 c          1 EKA       0.476100
      3 C06         -1.0060    -0.5480     0.0250 c6         1 EKA       0.115700
      4 C07         -1.5890     0.0730     1.2920 c6         1 EKA      -0.089400
      5 C08         -3.1140     0.0000     1.2540 c6         1 EKA      -0.071900
      6 C09         -3.6720     0.6750     0.0050 c6         1 EKA      -0.073400
      7 C10         -3.0670     0.0790    -1.2620 c6         1 EKA      -0.071900
      8 C11         -1.5420     0.1360    -1.2330 c6         1 EKA      -0.089400
      9 N04          0.4510    -0.6420     0.0460 n          1 EKA      -0.281300
     10 O01          3.3080    -0.6300     0.8720 o          1 EKA      -0.696000
     11 O05          0.9550    -1.7930    -0.5210 oh         1 EKA      -0.440100
     12 O12          0.9680     1.5340     0.3810 o          1 EKA      -0.642100
     13 O13          3.3420     0.5010    -1.0650 o          1 EKA      -0.696000
     14 H1          -1.3400    -1.5900     0.0050 h1         1 EKA       0.031700
     15 H2          -1.2020    -0.4530     2.1690 hc         1 EKA       0.058950
     16 H3          -1.2810     1.1150     1.3810 hc         1 EKA       0.058950
     17 H4          -3.4310    -1.0480     1.2760 hc         1 EKA       0.025950
     18 H5          -3.5250     0.4660     2.1520 hc         1 EKA       0.025950
     19 H6          -4.7610     0.5860    -0.0180 hc         1 EKA       0.030200
     20 H7          -3.4470     1.7460     0.0430 hc         1 EKA       0.030200
     21 H8          -3.3870    -0.9650    -1.3630 hc         1 EKA       0.025950
     22 H9          -3.4410     0.6010    -2.1450 hc         1 EKA       0.025950
     23 H10         -1.2140     1.1790    -1.2500 hc         1 EKA       0.058950
     24 H11         -1.1270    -0.3460    -2.1220 hc         1 EKA       0.058950
     25 H12          1.1600    -2.3840     0.2160 ho         1 EKA       0.440000
@<TRIPOS>BOND
     1     1     2 1   
     2     1    10 1   
     3     1    13 1   
     4     2     9 1   
     5     2    12 2   
     6     3     4 1   
     7     3     8 1   
     8     3     9 1   
     9     3    14 1   
    10     4     5 1   
    11     4    15 1   
    12     4    16 1   
    13     5     6 1   
    14     5    17 1   
    15     5    18 1   
    16     6     7 1   
    17     6    19 1   
    18     6    20 1   
    19     7     8 1   
    20     7    21 1   
    21     7    22 1   
    22     8    23 1   
    23     8    24 1   
    24     9    11 1   
    25    11    25 1   
@<TRIPOS>SUBSTRUCTURE
     1 EKA         1 TEMP              0 ****  ****    0 ROOT
