@<TRIPOS>MOLECULE
EKB
   47    48     1     0     0
SMALL
bcc


@<TRIPOS>ATOM
      1 N1          -3.9500     1.2490    -1.5620 nb         1 EKB      -0.873000
      2 C2          -5.1270     0.8150    -1.1130 ca         1 EKB       0.965900
      3 N3          -5.3320     0.0480    -0.0360 nb         1 EKB      -0.824000
      4 C4          -4.2570    -0.3170     0.6500 ca         1 EKB       0.552600
      5 C5          -2.9710     0.0720     0.2830 ca         1 EKB      -0.359600
      6 C6          -2.8720     0.8860    -0.8780 ca         1 EKB       0.778200
      7 C1A         -4.3160    -2.6880     1.4380 c3         1 EKB      -0.083100
      8 C1B          3.5600     3.1530     1.6380 c3         1 EKB       0.122700
      9 C1C          3.0100    -3.1030    -1.7850 c3         1 EKB       0.122700
     10 C1D          6.0310     0.1890    -0.8510 c3         1 EKB       0.125700
     11 N1E         -6.2140     1.1870    -1.8060 nv         1 EKB      -0.968500
     12 N1F         -1.6810     1.3040    -1.3210 nv         1 EKB      -0.965500
     13 C1G         -0.7670    -0.6010     1.5370 c1         1 EKB      -0.173100
     14 C1H         -1.8030    -0.3100     0.9880 cg         1 EKB      -0.072000
     15 C1I          2.2640     0.6740     1.4260 ca         1 EKB      -0.241000
     16 C1J          2.0820    -1.4380     0.2740 ca         1 EKB      -0.241000
     17 C1K         -4.4780    -1.2180     1.8270 c3         1 EKB      -0.135700
     18 C1L          0.5030    -0.9530     2.1610 c3         1 EKB       0.064000
     19 O1O          3.9590     2.2210     0.6520 os         1 EKB      -0.301400
     20 O1P          3.6070    -1.8400    -1.5620 os         1 EKB      -0.301400
     21 O1Q          4.7270     0.5590    -1.2770 os         1 EKB      -0.305900
     22 C1S          1.6610    -0.5650     1.2680 ca         1 EKB      -0.011300
     23 C1V          3.3070     1.0480     0.5800 ca         1 EKB       0.157100
     24 C1W          3.1230    -1.0680    -0.5750 ca         1 EKB       0.157100
     25 C1Y          3.7320     0.1810    -0.4300 ca         1 EKB       0.022100
     26 H1A         -4.5160    -3.3330     2.2930 hc         1 EKB       0.037700
     27 H1AA        -5.0100    -2.9620     0.6420 hc         1 EKB       0.037700
     28 H1AB        -3.3040    -2.8960     1.0900 hc         1 EKB       0.037700
     29 H1B          2.5210     3.4650     1.5100 h1         1 EKB       0.042367
     30 H1BA         3.6880     2.7590     2.6500 h1         1 EKB       0.042367
     31 H1BB         4.2030     4.0210     1.5170 h1         1 EKB       0.042367
     32 H1C          1.9560    -3.0120    -2.0600 h1         1 EKB       0.042367
     33 H1CA         3.5510    -3.5570    -2.6110 h1         1 EKB       0.042367
     34 H1CB         3.0910    -3.7540    -0.9110 h1         1 EKB       0.042367
     35 H1D          6.2950     0.6560     0.1010 h1         1 EKB       0.033367
     36 H1DA         6.1340    -0.8940    -0.7500 h1         1 EKB       0.033367
     37 H1DB         6.7280     0.5360    -1.6120 h1         1 EKB       0.033367
     38 HN1E        -6.1260     1.7520    -2.6310 hn         1 EKB       0.448800
     39 HN1A        -7.1270     0.8820    -1.5210 hn         1 EKB       0.448800
     40 HN1F        -0.8380     1.1130    -0.8080 hn         1 EKB       0.448800
     41 HN1B        -1.6270     1.9180    -2.1150 hn         1 EKB       0.448800
     42 H1I          1.9130     1.3350     2.2080 ha         1 EKB       0.141500
     43 H1J          1.5960    -2.4000     0.1750 ha         1 EKB       0.141500
     44 H1K         -3.7730    -0.9740     2.6240 hc         1 EKB       0.060200
     45 H1KA        -5.4840    -1.0480     2.2120 hc         1 EKB       0.060200
     46 H1L          0.5940    -0.4550     3.1300 hc         1 EKB       0.062200
     47 H1LA         0.5270    -2.0270     2.3610 hc         1 EKB       0.062200
@<TRIPOS>BOND
     1     1     2 ar  
     2     1     6 ar  
     3     2     3 ar  
     4     2    11 1   
     5     3     4 ar  
     6     4     5 ar  
     7     4    17 1   
     8     5     6 ar  
     9     5    14 1   
    10     6    12 1   
    11     7    17 1   
    12     7    26 1   
    13     7    27 1   
    14     7    28 1   
    15     8    19 1   
    16     8    29 1   
    17     8    30 1   
    18     8    31 1   
    19     9    20 1   
    20     9    32 1   
    21     9    33 1   
    22     9    34 1   
    23    10    21 1   
    24    10    35 1   
    25    10    36 1   
    26    10    37 1   
    27    11    38 1   
    28    11    39 1   
    29    12    40 1   
    30    12    41 1   
    31    13    14 3   
    32    13    18 1   
    33    15    22 ar  
    34    15    23 ar  
    35    15    42 1   
    36    16    22 ar  
    37    16    24 ar  
    38    16    43 1   
    39    17    44 1   
    40    17    45 1   
    41    18    22 1   
    42    18    46 1   
    43    18    47 1   
    44    19    23 1   
    45    20    24 1   
    46    21    25 1   
    47    23    25 ar  
    48    24    25 ar  
@<TRIPOS>SUBSTRUCTURE
     1 EKB         1 TEMP              0 ****  ****    0 ROOT
