@<TRIPOS>MOLECULE
EKB
   47    48     1     0     0
SMALL
No Charge or Current Charge


@<TRIPOS>ATOM
      1 N1          -3.9550     0.9800    -1.8980 nb         1 EKB      -0.347000
      2 C2          -5.1260     0.7590    -1.2990 ca         1 EKB       0.439900
      3 N3          -5.3480     0.2060    -0.1020 nb         1 EKB      -0.298000
      4 C4          -4.2580    -0.1750     0.5960 ca         1 EKB       0.224300
      5 C5          -2.9570     0.0070     0.0680 ca         1 EKB      -0.229000
      6 C6          -2.8780     0.5990    -1.2080 ca         1 EKB       0.449900
      7 C1A         -4.5080    -2.3490     1.9180 c3         1 EKB      -0.083100
      8 C1B          3.3730     3.2160     2.2230 c3         1 EKB       0.145900
      9 C1C          3.4690    -3.1100    -1.6470 c3         1 EKB       0.145900
     10 C1D          5.8610     0.1810    -1.6990 c3         1 EKB       0.148900
     11 N1E         -6.2200     1.1380    -1.9920 nv         1 EKB      -1.078900
     12 N1F         -1.7000     0.8360    -1.8410 nv         1 EKB      -1.075900
     13 C1G         -0.7860    -0.7350     1.4060 c1         1 EKB      -0.173100
     14 C1H         -1.7780    -0.3910     0.7950 cg         1 EKB      -0.072000
     15 C1I          2.2240     0.6200     1.6500 ca         1 EKB      -0.223000
     16 C1J          2.2740    -1.4390     0.3750 ca         1 EKB      -0.223000
     17 C1K         -4.5330    -0.8080     1.9600 c3         1 EKB      -0.135700
     18 C1L          0.4410    -1.1300     2.1080 c3         1 EKB       0.064000
     19 O1O          3.9160     2.3250     1.2330 os         1 EKB      -0.324600
     20 O1P          3.9850    -1.8120    -1.3020 os         1 EKB      -0.324600
     21 O1Q          5.0980     0.8250    -0.6640 os         1 EKB      -0.329100
     22 C1S          1.6770    -0.6380     1.3610 ca         1 EKB      -0.011300
     23 C1V          3.3640     1.0830     0.9600 ca         1 EKB       0.157100
     24 C1W          3.4170    -1.0010    -0.3330 ca         1 EKB       0.157100
     25 C1Y          3.9740     0.2820    -0.0360 ca         1 EKB       0.022100
     26 H1A         -4.7190    -2.7640     2.9110 hc         1 EKB       0.037700
     27 H1AA        -5.2640    -2.7290     1.2200 hc         1 EKB       0.037700
     28 H1AB        -3.5260    -2.7160     1.5950 hc         1 EKB       0.037700
     29 H1B          2.3390     3.4900     1.9760 h1         1 EKB       0.042367
     30 H1BA         3.3880     2.7520     3.2170 h1         1 EKB       0.042367
     31 H1BB         3.9660     4.1380     2.2700 h1         1 EKB       0.042367
     32 H1C          2.4390    -3.0360    -2.0160 h1         1 EKB       0.042367
     33 H1CA         4.0800    -3.5630    -2.4370 h1         1 EKB       0.042367
     34 H1CB         3.4880    -3.7810    -0.7780 h1         1 EKB       0.042367
     35 H1D          6.2920    -0.7620    -1.3400 h1         1 EKB       0.033367
     36 H1DA         5.2380    -0.0170    -2.5810 h1         1 EKB       0.033367
     37 H1DB         6.6890     0.8280    -2.0140 h1         1 EKB       0.033367
     38 HN1E        -6.1090     1.3290    -2.9840 hn         1 EKB       0.504000
     39 HN1A        -7.1240     0.7740    -1.6980 hn         1 EKB       0.504000
     40 HN1F        -0.8490     0.7760    -1.2880 hn         1 EKB       0.504000
     41 HN1B        -1.6960     1.4870    -2.6210 hn         1 EKB       0.504000
     42 H1I          1.7460     1.2280     2.4130 ha         1 EKB       0.123500
     43 H1J          1.8250    -2.4060     0.1700 ha         1 EKB       0.123500
     44 H1K         -3.8030    -0.4560     2.6990 hc         1 EKB       0.060200
     45 H1KA        -5.5120    -0.4850     2.3370 hc         1 EKB       0.060200
     46 H1L          0.4170    -0.7240     3.1270 hc         1 EKB       0.062200
     47 H1LA         0.4590    -2.2220     2.2110 hc         1 EKB       0.062200
@<TRIPOS>BOND
     1     1     2 ar  
     2     1     6 ar  
     3     2     3 ar  
     4     2    11 1   
     5     3     4 ar  
     6     4     5 ar  
     7     4    17 1   
     8     5     6 ar  
     9     5    14 1   
    10     6    12 1   
    11     7    17 1   
    12     7    26 1   
    13     7    27 1   
    14     7    28 1   
    15     8    19 1   
    16     8    29 1   
    17     8    30 1   
    18     8    31 1   
    19     9    20 1   
    20     9    32 1   
    21     9    33 1   
    22     9    34 1   
    23    10    21 1   
    24    10    35 1   
    25    10    36 1   
    26    10    37 1   
    27    11    38 1   
    28    11    39 1   
    29    12    40 1   
    30    12    41 1   
    31    13    14 3   
    32    13    18 1   
    33    15    22 ar  
    34    15    23 ar  
    35    15    42 1   
    36    16    22 ar  
    37    16    24 ar  
    38    16    43 1   
    39    17    44 1   
    40    17    45 1   
    41    18    22 1   
    42    18    46 1   
    43    18    47 1   
    44    19    23 1   
    45    20    24 1   
    46    21    25 1   
    47    23    25 ar  
    48    24    25 ar  
@<TRIPOS>SUBSTRUCTURE
     1 EKB         1 TEMP              0 ****  ****    0 ROOT
