@<TRIPOS>MOLECULE
EKD
   24    24     1     0     0
SMALL
No Charge or Current Charge


@<TRIPOS>ATOM
      1 C02          3.0160    -0.3460     0.1830 c          1 EKD       0.665000
      2 C03          1.6070     0.3290    -0.3160 c          1 EKD       0.444100
      3 C05         -0.9150    -0.0390    -0.3260 c6         1 EKD       0.107700
      4 C06         -1.8050    -1.3070    -0.4000 c6         1 EKD      -0.090400
      5 C07         -3.2820    -0.9450    -0.6940 c6         1 EKD      -0.071900
      6 C08         -3.8370     0.0410     0.3620 c6         1 EKD      -0.072400
      7 C09         -2.9490     1.3050     0.4650 c6         1 EKD      -0.071900
      8 C10         -1.4730     0.9310     0.7500 c6         1 EKD      -0.090400
      9 N04          0.4710    -0.4130    -0.0180 ns         1 EKD      -0.512900
     10 O01          2.9670    -1.4280     0.7660 o          1 EKD      -0.698500
     11 O11          1.5290     1.4060    -0.9130 o          1 EKD      -0.650100
     12 O12          4.0710     0.2450    -0.0400 o          1 EKD      -0.698500
     13 H1          -0.9320     0.4630    -1.3060 h1         1 EKD       0.067700
     14 H2          -1.4300    -1.9790    -1.1840 hc         1 EKD       0.042700
     15 H3          -1.7450    -1.8640     0.5450 hc         1 EKD       0.042700
     16 H4          -3.3620    -0.4990    -1.6950 hc         1 EKD       0.029200
     17 H5          -3.8940    -1.8580    -0.7090 hc         1 EKD       0.029200
     18 H6          -4.8650     0.3270     0.1030 hc         1 EKD       0.026200
     19 H7          -3.8870    -0.4550     1.3410 hc         1 EKD       0.026200
     20 H8          -3.0110     1.8780    -0.4710 hc         1 EKD       0.029200
     21 H9          -3.3280     1.9630     1.2590 hc         1 EKD       0.029200
     22 H10         -1.3960     0.4710     1.7450 hc         1 EKD       0.042700
     23 H11         -0.8640     1.8450     0.7820 hc         1 EKD       0.042700
     24 H12          0.6370    -1.2870     0.4730 hn         1 EKD       0.331500
@<TRIPOS>BOND
     1     1     2 1   
     2     1    10 1   
     3     1    12 1   
     4     2     9 1   
     5     2    11 2   
     6     3     4 1   
     7     3     8 1   
     8     3     9 1   
     9     3    13 1   
    10     4     5 1   
    11     4    14 1   
    12     4    15 1   
    13     5     6 1   
    14     5    16 1   
    15     5    17 1   
    16     6     7 1   
    17     6    18 1   
    18     6    19 1   
    19     7     8 1   
    20     7    20 1   
    21     7    21 1   
    22     8    22 1   
    23     8    23 1   
    24     9    24 1   
@<TRIPOS>SUBSTRUCTURE
     1 EKD         1 TEMP              0 ****  ****    0 ROOT
