@<TRIPOS>MOLECULE
EKD
   24    24     1     0     0
SMALL
abcg2


@<TRIPOS>ATOM
      1 C02          2.8900    -0.3550     0.1300 c          1 EKD       0.665000
      2 C03          1.5540     0.2000    -0.4520 c          1 EKD       0.444100
      3 C05         -0.9010    -0.0040    -0.2360 c6         1 EKD       0.107700
      4 C06         -1.7550    -1.2560    -0.4260 c6         1 EKD      -0.090400
      5 C07         -3.2040    -0.8960    -0.7430 c6         1 EKD      -0.071900
      6 C08         -3.8000     0.0160     0.3250 c6         1 EKD      -0.072400
      7 C09         -2.9470     1.2660     0.5160 c6         1 EKD      -0.071900
      8 C10         -1.5000     0.9040     0.8390 c6         1 EKD      -0.090400
      9 N04          0.4630    -0.3640     0.0790 ns         1 EKD      -0.512900
     10 O01          2.7820    -1.2170     1.0220 o          1 EKD      -0.698500
     11 O11          1.5320     1.0670    -1.3160 o          1 EKD      -0.650100
     12 O12          3.9190     0.1270    -0.3570 o          1 EKD      -0.698500
     13 H1          -0.8780     0.5470    -1.1810 h1         1 EKD       0.067700
     14 H2          -1.3310    -1.8700    -1.2240 hc         1 EKD       0.042700
     15 H3          -1.7190    -1.8570     0.4890 hc         1 EKD       0.042700
     16 H4          -3.2450    -0.3930    -1.7140 hc         1 EKD       0.029200
     17 H5          -3.7990    -1.8070    -0.8400 hc         1 EKD       0.029200
     18 H6          -4.8220     0.2930     0.0560 hc         1 EKD       0.026200
     19 H7          -3.8620    -0.5280     1.2730 hc         1 EKD       0.026200
     20 H8          -2.9750     1.8690    -0.3970 hc         1 EKD       0.029200
     21 H9          -3.3600     1.8910     1.3110 hc         1 EKD       0.029200
     22 H10         -1.4590     0.3870     1.8040 hc         1 EKD       0.042700
     23 H11         -0.8910     1.8060     0.9350 hc         1 EKD       0.042700
     24 H12          0.6310    -1.0430     0.8070 hn         1 EKD       0.331500
@<TRIPOS>BOND
     1     1     2 1   
     2     1    10 1   
     3     1    12 1   
     4     2     9 1   
     5     2    11 2   
     6     3     4 1   
     7     3     8 1   
     8     3     9 1   
     9     3    13 1   
    10     4     5 1   
    11     4    14 1   
    12     4    15 1   
    13     5     6 1   
    14     5    16 1   
    15     5    17 1   
    16     6     7 1   
    17     6    18 1   
    18     6    19 1   
    19     7     8 1   
    20     7    20 1   
    21     7    21 1   
    22     8    22 1   
    23     8    23 1   
    24     9    24 1   
@<TRIPOS>SUBSTRUCTURE
     1 EKD         1 TEMP              0 ****  ****    0 ROOT
