@<TRIPOS>MOLECULE
EKE
   22    21     1     0     0
SMALL
bcc


@<TRIPOS>ATOM
      1 N            1.1830    -1.8300     0.4490 n8         1 EKE      -0.870800
      2 CA           1.1420    -0.5020    -0.1490 c3         1 EKE       0.126500
      3 CB          -0.1770     0.1750     0.2250 c3         1 EKE      -0.042400
      4 CG          -1.3880    -0.4990    -0.3990 c3         1 EKE      -0.200400
      5 CD          -2.7570     0.0910    -0.0240 c          1 EKE       0.926600
      6 OE1         -2.7890     1.0290     0.7970 o          1 EKE      -0.851300
      7 OE2         -3.7470    -0.4310    -0.5820 o          1 EKE      -0.851300
      8 C            2.3550     0.3780     0.2110 c3         1 EKE       0.101100
      9 O            2.2890     1.6370    -0.4380 oh         1 EKE      -0.587800
     10 CMK          3.6860    -0.3040    -0.0830 c3         1 EKE      -0.130100
     11 HN1          1.9830    -2.3500     0.1130 hn         1 EKE       0.322300
     12 HN2          1.3020    -1.7480     1.4530 hn         1 EKE       0.322300
     13 HA           1.1650    -0.6460    -1.2390 h1         1 EKE       0.042700
     14 HB1         -0.2700     0.1770     1.3170 hc         1 EKE       0.046200
     15 HB2         -0.1460     1.2240    -0.0730 hc         1 EKE       0.046200
     16 HG1         -1.2970    -0.4710    -1.4910 hc         1 EKE       0.022700
     17 HG2         -1.3880    -1.5630    -0.1440 hc         1 EKE       0.022700
     18 H            2.3050     0.6030     1.2830 h1         1 EKE       0.067700
     19 HO           2.2940     1.4790    -1.3880 ho         1 EKE       0.393000
     20 HMK1         4.5120     0.3840     0.0980 hc         1 EKE       0.030700
     21 HMK2         3.8500    -1.1750     0.5510 hc         1 EKE       0.030700
     22 HMK3         3.7410    -0.6320    -1.1250 hc         1 EKE       0.030700
@<TRIPOS>BOND
     1     1     2 1   
     2     1    11 1   
     3     1    12 1   
     4     2     3 1   
     5     2     8 1   
     6     2    13 1   
     7     3     4 1   
     8     3    14 1   
     9     3    15 1   
    10     4     5 1   
    11     4    16 1   
    12     4    17 1   
    13     5     6 1   
    14     5     7 1   
    15     8     9 1   
    16     8    10 1   
    17     8    18 1   
    18     9    19 1   
    19    10    20 1   
    20    10    21 1   
    21    10    22 1   
@<TRIPOS>SUBSTRUCTURE
     1 EKE         1 TEMP              0 ****  ****    0 ROOT
