@<TRIPOS>MOLECULE
EKE
   22    21     1     0     0
SMALL
No Charge or Current Charge


@<TRIPOS>ATOM
      1 N            1.2490    -1.8330     0.5460 n8         1 EKE      -0.981200
      2 CA           1.1300    -0.5350    -0.1650 c3         1 EKE       0.126500
      3 CB          -0.2400     0.1340     0.1580 c3         1 EKE      -0.042400
      4 CG          -1.4880    -0.6940    -0.2560 c3         1 EKE      -0.200400
      5 CD          -2.7670     0.1210    -0.0050 c          1 EKE       0.716000
      6 OE1         -3.2980     0.0410     1.0930 o          1 EKE      -0.746000
      7 OE2         -3.1710     0.8510    -0.8970 o          1 EKE      -0.746000
      8 C            2.3540     0.4040     0.1440 c3         1 EKE       0.124300
      9 O            2.2640     1.6190    -0.6150 oh         1 EKE      -0.650000
     10 CMK          3.7240    -0.2390    -0.1730 c3         1 EKE      -0.130100
     11 HN1          2.1890    -2.2130     0.3890 hn         1 EKE       0.377500
     12 HN2          1.2160    -1.6670     1.5570 hn         1 EKE       0.377500
     13 HA           1.1510    -0.7570    -1.2410 h1         1 EKE       0.042700
     14 HB1         -0.2920     0.3570     1.2310 hc         1 EKE       0.046200
     15 HB2         -0.2940     1.1010    -0.3580 hc         1 EKE       0.046200
     16 HG1         -1.3710    -0.8990    -1.3270 hc         1 EKE       0.022700
     17 HG2         -1.4860    -1.5950     0.3700 hc         1 EKE       0.022700
     18 H            2.3350     0.6430     1.2170 h1         1 EKE       0.067700
     19 HO           2.4210     1.3840    -1.5550 ho         1 EKE       0.432000
     20 HMK1         4.5360     0.4770     0.0040 hc         1 EKE       0.030700
     21 HMK2         3.9100    -1.1100     0.4670 hc         1 EKE       0.030700
     22 HMK3         3.7750    -0.5630    -1.2200 hc         1 EKE       0.030700
@<TRIPOS>BOND
     1     1     2 1   
     2     1    11 1   
     3     1    12 1   
     4     2     3 1   
     5     2     8 1   
     6     2    13 1   
     7     3     4 1   
     8     3    14 1   
     9     3    15 1   
    10     4     5 1   
    11     4    16 1   
    12     4    17 1   
    13     5     6 1   
    14     5     7 1   
    15     8     9 1   
    16     8    10 1   
    17     8    18 1   
    18     9    19 1   
    19    10    20 1   
    20    10    21 1   
    21    10    22 1   
@<TRIPOS>SUBSTRUCTURE
     1 EKE         1 TEMP              0 ****  ****    0 ROOT
