@<TRIPOS>MOLECULE
EKF
   54    58     1     0     0
SMALL
No Charge or Current Charge


@<TRIPOS>ATOM
      1 C1          31.5910   -75.4610     5.1520 cc         1 EKF       0.392900
      2 C2          31.6700   -75.9610     6.4540 cd         1 EKF      -0.103000
      3 C3          31.4670   -74.9640     7.4650 cd         1 EKF      -0.048000
      4 C12         30.1190   -71.5370     4.3390 c3         1 EKF       0.291100
      5 C13         28.8210   -70.8840     4.8060 ca         1 EKF      -0.046300
      6 C14         28.6840   -69.4770     4.8060 ca         1 EKF      -0.137000
      7 C15         27.4910   -68.8690     5.2550 ca         1 EKF      -0.074000
      8 C16         26.4200   -69.6640     5.7080 ca         1 EKF      -0.132000
      9 C17         26.5690   -71.0550     5.6930 ca         1 EKF       0.132100
     10 C18         27.7320   -71.6540     5.2640 ca         1 EKF      -0.158300
     11 C20         26.0870   -73.2470     5.6760 c5         1 EKF       0.148600
     12 C21         27.6320   -73.1440     5.3990 c5         1 EKF      -0.056100
     13 C22         31.4840   -78.3740     5.7270 ca         1 EKF      -0.090500
     14 C23         31.6180   -79.7520     5.9700 ca         1 EKF      -0.103500
     15 C24         32.0940   -80.2180     7.2080 ca         1 EKF      -0.115300
     16 C25         32.4220   -79.2810     8.2040 ca         1 EKF      -0.103500
     17 C26         32.2860   -77.9030     7.9630 ca         1 EKF      -0.090500
     18 C27         32.2330   -81.7180     7.4750 c3         1 EKF       0.218100
     19 C29         34.6730   -81.7680     7.9380 c3         1 EKF       0.157100
     20 C30         33.8500   -82.2490     5.6650 c3         1 EKF       0.157100
     21 C9          30.9560   -72.9640     8.2310 cd         1 EKF       0.313700
     22 O19         25.6120   -71.9320     6.1200 os         1 EKF      -0.331100
     23 N8          30.9550   -73.8160     9.2540 nc         1 EKF      -0.342700
     24 N28         33.5590   -82.2890     7.1150 n3         1 EKF      -0.725600
     25 N6          31.3230   -74.1280     4.8410 nc         1 EKF      -0.773000
     26 C5          31.1560   -73.2690     5.8370 cd         1 EKF       0.815400
     27 N7          31.2740   -75.0860     8.7670 nc         1 EKF      -0.102000
     28 C10         31.8090   -77.4210     6.7210 ca         1 EKF      -0.016000
     29 N11         30.8980   -71.9820     5.5040 nu         1 EKF      -0.943100
     30 N4          31.3770   -73.6630     7.1420 na         1 EKF      -0.236300
     31 H1          31.7200   -76.0820     4.2770 h4         1 EKF       0.032100
     32 H2          29.8740   -72.3720     3.6680 h1         1 EKF       0.063200
     33 H3          30.7030   -70.8150     3.7520 h1         1 EKF       0.063200
     34 H4          29.5040   -68.8500     4.4640 ha         1 EKF       0.111000
     35 H5          27.4000   -67.7850     5.2540 ha         1 EKF       0.116000
     36 H6          25.4980   -69.2110     6.0610 ha         1 EKF       0.133000
     37 H7          25.5520   -73.5010     4.7510 h1         1 EKF       0.057700
     38 H8          28.2190   -73.5250     6.2420 hc         1 EKF       0.064200
     39 H9          31.0950   -78.0670     4.7610 ha         1 EKF       0.120500
     40 H10         31.3490   -80.4610     5.1900 ha         1 EKF       0.112000
     41 H11         32.7950   -79.6200     9.1680 ha         1 EKF       0.112000
     42 H12         32.5920   -77.2200     8.7470 ha         1 EKF       0.120500
     43 H13         31.4430   -82.2440     6.9200 h1         1 EKF       0.057200
     44 H14         32.0290   -81.9020     8.5390 h1         1 EKF       0.057200
     45 H15         34.4490   -81.8720     9.0080 h1         1 EKF       0.029867
     46 H16         35.5980   -82.3230     7.7320 h1         1 EKF       0.029867
     47 H17         34.8580   -80.7060     7.7260 h1         1 EKF       0.029867
     48 H18         33.0300   -82.7010     5.0900 h1         1 EKF       0.029867
     49 H19         33.9870   -81.2160     5.3180 h1         1 EKF       0.029867
     50 H20         34.7680   -82.8080     5.4390 h1         1 EKF       0.029867
     51 H21         30.6940   -71.9130     8.2360 h5         1 EKF       0.070800
     52 H23         30.9490   -71.3390     6.2840 hn         1 EKF       0.507000
     53 H24         25.8410   -74.0070     6.4290 h1         1 EKF       0.057700
     54 H25         27.9280   -73.6900     4.4970 hc         1 EKF       0.064200
@<TRIPOS>BOND
     1     1     2 2   
     2     1    25 1   
     3     1    31 1   
     4     2     3 1   
     5     2    28 1   
     6     3    27 2   
     7     3    30 1   
     8     4     5 1   
     9     4    29 1   
    10     4    32 1   
    11     4    33 1   
    12     5     6 ar  
    13     5    10 ar  
    14     6     7 ar  
    15     6    34 1   
    16     7     8 ar  
    17     7    35 1   
    18     8     9 ar  
    19     8    36 1   
    20     9    10 ar  
    21     9    22 1   
    22    10    12 1   
    23    11    12 1   
    24    11    22 1   
    25    11    37 1   
    26    11    53 1   
    27    12    38 1   
    28    12    54 1   
    29    13    14 ar  
    30    13    28 ar  
    31    13    39 1   
    32    14    15 ar  
    33    14    40 1   
    34    15    16 ar  
    35    15    18 1   
    36    16    17 ar  
    37    16    41 1   
    38    17    28 ar  
    39    17    42 1   
    40    18    24 1   
    41    18    43 1   
    42    18    44 1   
    43    19    24 1   
    44    19    45 1   
    45    19    46 1   
    46    19    47 1   
    47    20    24 1   
    48    20    48 1   
    49    20    49 1   
    50    20    50 1   
    51    21    23 2   
    52    21    30 1   
    53    21    51 1   
    54    23    27 1   
    55    25    26 2   
    56    26    29 1   
    57    26    30 1   
    58    29    52 1   
@<TRIPOS>SUBSTRUCTURE
     1 EKF         1 TEMP              0 ****  ****    0 ROOT
