@<TRIPOS>MOLECULE
EKF
   54    58     1     0     0
SMALL
bcc


@<TRIPOS>ATOM
      1 C1          30.8640   -75.2850     6.1830 cc         1 EKF       0.458200
      2 C2          31.7030   -75.6270     7.2050 cd         1 EKF      -0.168300
      3 C3          32.2900   -74.5250     7.8870 cd         1 EKF       0.002700
      4 C12         30.0490   -71.4430     4.9140 c3         1 EKF       0.291100
      5 C13         28.5720   -71.6610     5.1210 ca         1 EKF      -0.046300
      6 C14         27.9570   -71.4480     6.3570 ca         1 EKF      -0.155000
      7 C15         26.5880   -71.6260     6.5050 ca         1 EKF      -0.092000
      8 C16         25.7820   -72.0130     5.4360 ca         1 EKF      -0.150000
      9 C17         26.4090   -72.2130     4.2190 ca         1 EKF       0.132100
     10 C18         27.7760   -72.0380     4.0540 ca         1 EKF      -0.158300
     11 C20         26.7300   -72.5400     2.0070 c5         1 EKF       0.125400
     12 C21         28.1240   -72.3870     2.6360 c5         1 EKF      -0.056100
     13 C22         30.9550   -77.9630     7.6210 ca         1 EKF      -0.108500
     14 C23         31.2160   -79.2860     7.9410 ca         1 EKF      -0.121500
     15 C24         32.5080   -79.7150     8.2340 ca         1 EKF      -0.115300
     16 C25         33.5300   -78.7680     8.2090 ca         1 EKF      -0.121500
     17 C26         33.2770   -77.4430     7.8920 ca         1 EKF      -0.108500
     18 C27         32.8040   -81.1680     8.5290 c3         1 EKF       0.218100
     19 C29         34.2410   -81.6310     6.6280 c3         1 EKF       0.157100
     20 C30         31.9120   -82.1810     6.5080 c3         1 EKF       0.157100
     21 C9          32.6670   -72.4260     8.3150 cd         1 EKF       0.313700
     22 O19         25.7840   -72.6030     3.0900 os         1 EKF      -0.307900
     23 N8          33.3450   -73.1460     9.1510 nc         1 EKF      -0.342700
     24 N28         33.0580   -82.0060     7.3690 n3         1 EKF      -0.725600
     25 N6          30.5690   -74.0220     5.7940 nc         1 EKF      -0.773000
     26 C5          31.1080   -73.0200     6.4200 cd         1 EKF       0.815400
     27 N7          33.1200   -74.4550     8.8970 nc         1 EKF      -0.102000
     28 C10         31.9830   -77.0200     7.5820 ca         1 EKF      -0.016000
     29 N11         30.8670   -71.7570     6.0620 nu         1 EKF      -0.887900
     30 N4          31.9660   -73.2500     7.4760 na         1 EKF      -0.287000
     31 H1          30.3870   -76.0640     5.5990 h4         1 EKF       0.032100
     32 H2          30.3950   -72.0200     4.0550 h1         1 EKF       0.063200
     33 H3          30.2340   -70.3940     4.6790 h1         1 EKF       0.063200
     34 H4          28.5500   -71.1490     7.2120 ha         1 EKF       0.129000
     35 H5          26.1330   -71.4580     7.4730 ha         1 EKF       0.134000
     36 H6          24.7160   -72.1520     5.5560 ha         1 EKF       0.151000
     37 H7          26.4800   -71.6790     1.3820 h1         1 EKF       0.057700
     38 H8          28.7030   -73.3130     2.5900 hc         1 EKF       0.064200
     39 H9          29.9360   -77.6550     7.4210 ha         1 EKF       0.138500
     40 H10         30.3940   -79.9910     7.9810 ha         1 EKF       0.130000
     41 H11         34.5440   -79.0700     8.4450 ha         1 EKF       0.130000
     42 H12         34.0950   -76.7350     7.8780 ha         1 EKF       0.138500
     43 H13         31.9660   -81.6050     9.0790 h1         1 EKF       0.057200
     44 H14         33.6790   -81.2310     9.1810 h1         1 EKF       0.057200
     45 H15         35.0980   -81.5620     7.3010 h1         1 EKF       0.029867
     46 H16         34.4630   -82.3980     5.8840 h1         1 EKF       0.029867
     47 H17         34.1560   -80.6720     6.0960 h1         1 EKF       0.029867
     48 H18         31.0510   -82.5110     7.0920 h1         1 EKF       0.029867
     49 H19         31.6170   -81.2760     5.9560 h1         1 EKF       0.029867
     50 H20         32.1270   -82.9560     5.7690 h1         1 EKF       0.029867
     51 H21         32.6500   -71.3490     8.2790 h5         1 EKF       0.070800
     52 H23         31.2790   -70.9920     6.5680 hn         1 EKF       0.451800
     53 H24         26.6250   -73.4430     1.4070 h1         1 EKF       0.057700
     54 H25         28.7060   -71.6170     2.1280 hc         1 EKF       0.064200
@<TRIPOS>BOND
     1     1     2 2   
     2     1    25 1   
     3     1    31 1   
     4     2     3 1   
     5     2    28 1   
     6     3    27 2   
     7     3    30 1   
     8     4     5 1   
     9     4    29 1   
    10     4    32 1   
    11     4    33 1   
    12     5     6 ar  
    13     5    10 ar  
    14     6     7 ar  
    15     6    34 1   
    16     7     8 ar  
    17     7    35 1   
    18     8     9 ar  
    19     8    36 1   
    20     9    10 ar  
    21     9    22 1   
    22    10    12 1   
    23    11    12 1   
    24    11    22 1   
    25    11    37 1   
    26    11    53 1   
    27    12    38 1   
    28    12    54 1   
    29    13    14 ar  
    30    13    28 ar  
    31    13    39 1   
    32    14    15 ar  
    33    14    40 1   
    34    15    16 ar  
    35    15    18 1   
    36    16    17 ar  
    37    16    41 1   
    38    17    28 ar  
    39    17    42 1   
    40    18    24 1   
    41    18    43 1   
    42    18    44 1   
    43    19    24 1   
    44    19    45 1   
    45    19    46 1   
    46    19    47 1   
    47    20    24 1   
    48    20    48 1   
    49    20    49 1   
    50    20    50 1   
    51    21    23 2   
    52    21    30 1   
    53    21    51 1   
    54    23    27 1   
    55    25    26 2   
    56    26    29 1   
    57    26    30 1   
    58    29    52 1   
@<TRIPOS>SUBSTRUCTURE
     1 EKF         1 TEMP              0 ****  ****    0 ROOT
