@<TRIPOS>MOLECULE
EKG
   61    60     1     0     0
SMALL
abcg2


@<TRIPOS>ATOM
      1 C19         13.4980    -0.4750     0.1860 c3         1 EKG      -0.088100
      2 C8           3.3240    -0.3670     0.0510 c3         1 EKG      -0.074400
      3 C7           2.0650     0.4740    -0.1170 c3         1 EKG      -0.074400
      4 C15         12.2430     0.3700     0.0190 c3         1 EKG      -0.074400
      5 C9           4.6080     0.4390    -0.0890 c3         1 EKG      -0.074400
      6 C6           0.7780    -0.3270     0.0250 c3         1 EKG      -0.074400
      7 C21         -7.8970     0.5440    -0.0540 c3         1 EKG       0.128600
      8 C14         10.9600    -0.4440     0.1410 c3         1 EKG      -0.075400
      9 C10          5.8700    -0.3980     0.0790 c3         1 EKG      -0.074400
     10 C5          -0.4760     0.5200    -0.1430 c3         1 EKG      -0.074400
     11 C13          9.6970     0.3900    -0.0240 c3         1 EKG      -0.074400
     12 C11          7.1520     0.4120    -0.0580 c3         1 EKG      -0.074400
     13 C4          -1.7680    -0.2740     0.0030 c3         1 EKG      -0.075400
     14 C12          8.4150    -0.4230     0.1090 c3         1 EKG      -0.074400
     15 C3          -3.0110     0.5890    -0.1690 c3         1 EKG      -0.068400
     16 C2          -4.2920    -0.2130    -0.0070 c3         1 EKG      -0.137400
     17 C24        -10.3270     0.2380     0.3210 c3         1 EKG       0.128600
     18 C22         -8.9740    -0.4570     0.3260 c3         1 EKG       0.164300
     19 O19         -5.5730     1.7680    -0.5040 o          1 EKG      -0.491000
     20 C1          -5.5410     0.6080    -0.1780 c          1 EKG       0.592100
     21 O20         -6.6330    -0.1080     0.0710 os         1 EKG      -0.435100
     22 O23         -8.9480    -1.5990    -0.4950 oh         1 EKG      -0.626000
     23 H1          14.4030     0.1280     0.1100 hc         1 EKG       0.031367
     24 H2          13.5120    -0.9700     1.1590 hc         1 EKG       0.031367
     25 H3          13.5550    -1.2540    -0.5770 hc         1 EKG       0.031367
     26 H4           3.3070    -0.8550     1.0320 hc         1 EKG       0.036700
     27 H5           3.3210    -1.1770    -0.6880 hc         1 EKG       0.036700
     28 H6           2.0700     1.2840     0.6210 hc         1 EKG       0.037700
     29 H7           2.0830     0.9610    -1.0990 hc         1 EKG       0.037700
     30 H8          12.2370     1.1680     0.7670 hc         1 EKG       0.036700
     31 H9          12.2620     0.8690    -0.9550 hc         1 EKG       0.036700
     32 H10          4.6250     0.9270    -1.0700 hc         1 EKG       0.037200
     33 H11          4.6100     1.2480     0.6500 hc         1 EKG       0.037200
     34 H12          0.7710    -1.1370    -0.7140 hc         1 EKG       0.037700
     35 H13          0.7590    -0.8140     1.0060 hc         1 EKG       0.037700
     36 H14         -8.0400     0.8950    -1.0810 h1         1 EKG       0.050700
     37 H15         -7.9380     1.4140     0.6070 h1         1 EKG       0.050700
     38 H16         10.9670    -1.2450    -0.6070 hc         1 EKG       0.036700
     39 H17         10.9420    -0.9430     1.1170 hc         1 EKG       0.036700
     40 H18          5.8530    -0.8880     1.0590 hc         1 EKG       0.036700
     41 H19          5.8700    -1.2060    -0.6620 hc         1 EKG       0.036700
     42 H20         -0.4660     1.3320     0.5930 hc         1 EKG       0.039700
     43 H21         -0.4590     1.0040    -1.1260 hc         1 EKG       0.039700
     44 H22          9.6940     1.1950     0.7210 hc         1 EKG       0.036700
     45 H23          9.7130     0.8850    -1.0020 hc         1 EKG       0.036700
     46 H24          7.1680     0.9030    -1.0380 hc         1 EKG       0.036700
     47 H25          7.1510     1.2200     0.6830 hc         1 EKG       0.036700
     48 H26         -1.7810    -1.0860    -0.7330 hc         1 EKG       0.038200
     49 H27         -1.7880    -0.7570     0.9870 hc         1 EKG       0.038200
     50 H28          8.4180    -1.2290    -0.6340 hc         1 EKG       0.036700
     51 H29          8.3990    -0.9150     1.0880 hc         1 EKG       0.036700
     52 H30         -2.9910     1.4020     0.5620 hc         1 EKG       0.053700
     53 H31         -2.9910     1.0600    -1.1550 hc         1 EKG       0.053700
     54 H32         -4.3250    -1.0320    -0.7340 hc         1 EKG       0.073700
     55 H33         -4.3240    -0.6950     0.9750 hc         1 EKG       0.073700
     56 H34        -10.2700     1.1240     0.9660 h1         1 EKG       0.021700
     57 H35        -10.5450     0.6000    -0.6950 h1         1 EKG       0.021700
     58 H36         -8.7730    -0.8130     1.3410 h1         1 EKG       0.097700
     59 H37         -9.1960    -1.3420    -1.3900 ho         1 EKG       0.436000
     60 H38        -12.1560    -0.2290     0.7340 ho         1 EKG       0.445000
     61 O25        -11.3030    -0.6700     0.7690 oh         1 EKG      -0.642000
@<TRIPOS>BOND
     1     1     4 1   
     2     1    23 1   
     3     1    24 1   
     4     1    25 1   
     5     2     3 1   
     6     2     5 1   
     7     2    26 1   
     8     2    27 1   
     9     3     6 1   
    10     3    28 1   
    11     3    29 1   
    12     4     8 1   
    13     4    30 1   
    14     4    31 1   
    15     5     9 1   
    16     5    32 1   
    17     5    33 1   
    18     6    10 1   
    19     6    34 1   
    20     6    35 1   
    21     7    18 1   
    22     7    21 1   
    23     7    36 1   
    24     7    37 1   
    25     8    11 1   
    26     8    38 1   
    27     8    39 1   
    28     9    12 1   
    29     9    40 1   
    30     9    41 1   
    31    10    13 1   
    32    10    42 1   
    33    10    43 1   
    34    11    14 1   
    35    11    44 1   
    36    11    45 1   
    37    12    14 1   
    38    12    46 1   
    39    12    47 1   
    40    13    15 1   
    41    13    48 1   
    42    13    49 1   
    43    14    50 1   
    44    14    51 1   
    45    15    16 1   
    46    15    52 1   
    47    15    53 1   
    48    16    20 1   
    49    16    54 1   
    50    16    55 1   
    51    17    18 1   
    52    17    56 1   
    53    17    57 1   
    54    17    61 1   
    55    18    22 1   
    56    18    58 1   
    57    19    20 2   
    58    20    21 1   
    59    22    59 1   
    60    60    61 1   
@<TRIPOS>SUBSTRUCTURE
     1 EKG         1 TEMP              0 ****  ****    0 ROOT
