@<TRIPOS>MOLECULE
EKG
   61    60     1     0     0
SMALL
No Charge or Current Charge


@<TRIPOS>ATOM
      1 C19         13.3750    -0.2640     0.9140 c3         1 EKG      -0.088100
      2 C8           3.1870    -0.4610    -0.6040 c3         1 EKG      -0.074400
      3 C7           1.8490     0.2970    -0.4640 c3         1 EKG      -0.074400
      4 C15         12.0400     0.4920     1.0530 c3         1 EKG      -0.074400
      5 C9           4.3970     0.3460    -0.0850 c3         1 EKG      -0.074400
      6 C6           0.6390    -0.5100    -0.9830 c3         1 EKG      -0.074400
      7 C21         -7.6280     0.5500    -0.0910 c3         1 EKG       0.128600
      8 C14         10.8300    -0.3150     0.5340 c3         1 EKG      -0.075400
      9 C10          5.7350    -0.4120    -0.2250 c3         1 EKG      -0.074400
     10 C5          -0.6990     0.2480    -0.8420 c3         1 EKG      -0.074400
     11 C13          9.4920     0.4440     0.6740 c3         1 EKG      -0.074400
     12 C11          6.9440     0.3950     0.2940 c3         1 EKG      -0.074400
     13 C4          -1.9090    -0.5600    -1.3610 c3         1 EKG      -0.075400
     14 C12          8.2820    -0.3640     0.1550 c3         1 EKG      -0.074400
     15 C3          -3.2470     0.1980    -1.2200 c3         1 EKG      -0.068400
     16 C2          -4.4580    -0.6110    -1.7400 c3         1 EKG      -0.137400
     17 C24         -9.4030     0.8390     1.7480 c3         1 EKG       0.128600
     18 C22         -8.1630     0.0360     1.2720 c3         1 EKG       0.164300
     19 O19         -6.1660     0.9970    -2.3830 o          1 EKG      -0.491000
     20 C1          -5.7630     0.1710    -1.5750 c          1 EKG       0.592100
     21 O20         -6.3910    -0.1290    -0.3940 os         1 EKG      -0.435100
     22 O23         -8.5240    -1.3570     1.1860 oh         1 EKG      -0.626000
     23 H1          14.2020     0.3470     1.2950 hc         1 EKG       0.031367
     24 H2          13.3510    -1.2020     1.4840 hc         1 EKG       0.031367
     25 H3          13.5790    -0.5020    -0.1370 hc         1 EKG       0.031367
     26 H4           3.1230    -1.4080    -0.0540 hc         1 EKG       0.036700
     27 H5           3.3490    -0.7140    -1.6600 hc         1 EKG       0.036700
     28 H6           1.6870     0.5500     0.5920 hc         1 EKG       0.037700
     29 H7           1.9120     1.2440    -1.0140 hc         1 EKG       0.037700
     30 H8          11.8820     0.7460     2.1090 hc         1 EKG       0.036700
     31 H9          12.1090     1.4390     0.5030 hc         1 EKG       0.036700
     32 H10          4.4600     1.2930    -0.6360 hc         1 EKG       0.037200
     33 H11          4.2350     0.5990     0.9700 hc         1 EKG       0.037200
     34 H12          0.8010    -0.7630    -2.0380 hc         1 EKG       0.037700
     35 H13          0.5760    -1.4580    -0.4330 hc         1 EKG       0.037700
     36 H14         -8.3780     0.3650    -0.8710 h1         1 EKG       0.050700
     37 H15         -7.4630     1.6340    -0.0260 h1         1 EKG       0.050700
     38 H16         10.9920    -0.5680    -0.5210 hc         1 EKG       0.036700
     39 H17         10.7660    -1.2620     1.0850 hc         1 EKG       0.036700
     40 H18          5.6710    -1.3590     0.3260 hc         1 EKG       0.036700
     41 H19          5.8970    -0.6650    -1.2800 hc         1 EKG       0.036700
     42 H20         -0.8600     0.5000     0.2140 hc         1 EKG       0.039700
     43 H21         -0.6350     1.1950    -1.3920 hc         1 EKG       0.039700
     44 H22          9.3300     0.6970     1.7290 hc         1 EKG       0.036700
     45 H23          9.5560     1.3910     0.1230 hc         1 EKG       0.036700
     46 H24          7.0080     1.3420    -0.2570 hc         1 EKG       0.036700
     47 H25          6.7820     0.6480     1.3490 hc         1 EKG       0.036700
     48 H26         -1.7470    -0.8120    -2.4170 hc         1 EKG       0.038200
     49 H27         -1.9710    -1.5070    -0.8110 hc         1 EKG       0.038200
     50 H28          8.4440    -0.6170    -0.9010 hc         1 EKG       0.036700
     51 H29          8.2180    -1.3100     0.7060 hc         1 EKG       0.036700
     52 H30         -3.4090     0.4510    -0.1640 hc         1 EKG       0.053700
     53 H31         -3.1840     1.1470    -1.7690 hc         1 EKG       0.053700
     54 H32         -4.3090    -0.8390    -2.8020 hc         1 EKG       0.073700
     55 H33         -4.5180    -1.5340    -1.1510 hc         1 EKG       0.073700
     56 H34         -9.1170     1.8900     1.8870 h1         1 EKG       0.021700
     57 H35        -10.1800     0.8040     0.9720 h1         1 EKG       0.021700
     58 H36         -7.3700     0.1790     2.0190 h1         1 EKG       0.097700
     59 H37         -9.1410    -1.5000     1.9390 ho         1 EKG       0.436000
     60 H38        -10.6540     0.8630     3.2660 ho         1 EKG       0.445000
     61 O25         -9.9040     0.2940     2.9810 oh         1 EKG      -0.642000
@<TRIPOS>BOND
     1     1     4 1   
     2     1    23 1   
     3     1    24 1   
     4     1    25 1   
     5     2     3 1   
     6     2     5 1   
     7     2    26 1   
     8     2    27 1   
     9     3     6 1   
    10     3    28 1   
    11     3    29 1   
    12     4     8 1   
    13     4    30 1   
    14     4    31 1   
    15     5     9 1   
    16     5    32 1   
    17     5    33 1   
    18     6    10 1   
    19     6    34 1   
    20     6    35 1   
    21     7    18 1   
    22     7    21 1   
    23     7    36 1   
    24     7    37 1   
    25     8    11 1   
    26     8    38 1   
    27     8    39 1   
    28     9    12 1   
    29     9    40 1   
    30     9    41 1   
    31    10    13 1   
    32    10    42 1   
    33    10    43 1   
    34    11    14 1   
    35    11    44 1   
    36    11    45 1   
    37    12    14 1   
    38    12    46 1   
    39    12    47 1   
    40    13    15 1   
    41    13    48 1   
    42    13    49 1   
    43    14    50 1   
    44    14    51 1   
    45    15    16 1   
    46    15    52 1   
    47    15    53 1   
    48    16    20 1   
    49    16    54 1   
    50    16    55 1   
    51    17    18 1   
    52    17    56 1   
    53    17    57 1   
    54    17    61 1   
    55    18    22 1   
    56    18    58 1   
    57    19    20 2   
    58    20    21 1   
    59    22    59 1   
    60    60    61 1   
@<TRIPOS>SUBSTRUCTURE
     1 EKG         1 TEMP              0 ****  ****    0 ROOT
