@<TRIPOS>MOLECULE
EKH
   33    35     1     0     0
SMALL
No Charge or Current Charge


@<TRIPOS>ATOM
      1 Cl           2.1940    -2.8890     1.1150 cl         1 EKH      -0.173000
      2 C10          1.3870    -1.3790     0.8200 cc         1 EKH       0.070800
      3 C2           1.9780    -0.1820     0.3070 ca         1 EKH      -0.258800
      4 C            3.2840     0.1350    -0.0780 ca         1 EKH       0.445900
      5 N3           4.3140    -0.7420    -0.0250 nv         1 EKH      -1.072900
      6 C4           0.0510    -1.1070     1.0380 cd         1 EKH      -0.154100
      7 N2          -0.2190     0.2360     0.6580 na         1 EKH      -0.185400
      8 C3           0.9920     0.7720     0.2230 ca         1 EKH       0.179500
      9 N1           1.2750     2.0120    -0.2260 nb         1 EKH      -0.226000
     10 C1           2.5600     2.2420    -0.5840 ca         1 EKH       0.187900
     11 N            3.5850     1.3590    -0.5330 nb         1 EKH      -0.306000
     12 C5          -1.5150     0.9320     0.7400 c5         1 EKH       0.309300
     13 O3          -2.5480     0.0250     1.2100 os         1 EKH      -0.428000
     14 C8          -3.4360    -0.2820     0.1060 c5         1 EKH       0.129300
     15 C9          -2.8730    -1.4350    -0.7850 c3         1 EKH       0.149600
     16 O           -2.9300    -2.6970    -0.1000 oh         1 EKH      -0.697000
     17 C7          -3.5490     1.0920    -0.6240 c5         1 EKH       0.100300
     18 O1          -4.3740     2.0400     0.0860 oh         1 EKH      -0.685000
     19 C6          -2.0560     1.5470    -0.6100 c5         1 EKH       0.135300
     20 O2          -2.0170     2.9770    -0.6650 oh         1 EKH      -0.670000
     21 H1           4.0920    -1.7250     0.1100 hn         1 EKH       0.502000
     22 H2           5.1590    -0.5280    -0.5480 hn         1 EKH       0.502000
     23 H3          -0.7190    -1.7650     1.4270 h4         1 EKH       0.227000
     24 H4           2.7930     3.2410    -0.9500 h5         1 EKH       0.046100
     25 H5          -1.3730     1.7280     1.4810 h2         1 EKH       0.132700
     26 H6          -4.4080    -0.6040     0.5030 h1         1 EKH       0.085700
     27 H7          -3.4780    -1.4870    -1.7000 h1         1 EKH       0.019200
     28 H8          -1.8420    -1.2120    -1.0910 h1         1 EKH       0.019200
     29 H9          -2.6040    -3.3840    -0.7280 ho         1 EKH       0.505000
     30 H10         -3.9160     0.9660    -1.6530 h1         1 EKH       0.049700
     31 H11         -5.2930     1.6790     0.1100 ho         1 EKH       0.507000
     32 H12         -1.5150     1.1190    -1.4650 h1         1 EKH       0.042700
     33 H13         -2.9250     3.2250    -0.3530 ho         1 EKH       0.510000
@<TRIPOS>BOND
     1     1     2 1   
     2     2     3 1   
     3     2     6 2   
     4     3     4 ar  
     5     3     8 ar  
     6     4     5 1   
     7     4    11 ar  
     8     5    21 1   
     9     5    22 1   
    10     6     7 1   
    11     6    23 1   
    12     7     8 1   
    13     7    12 1   
    14     8     9 ar  
    15     9    10 ar  
    16    10    11 ar  
    17    10    24 1   
    18    12    13 1   
    19    12    19 1   
    20    12    25 1   
    21    13    14 1   
    22    14    15 1   
    23    14    17 1   
    24    14    26 1   
    25    15    16 1   
    26    15    27 1   
    27    15    28 1   
    28    16    29 1   
    29    17    18 1   
    30    17    19 1   
    31    17    30 1   
    32    18    31 1   
    33    19    20 1   
    34    19    32 1   
    35    20    33 1   
@<TRIPOS>SUBSTRUCTURE
     1 EKH         1 TEMP              0 ****  ****    0 ROOT
