@<TRIPOS>MOLECULE
EKH
   33    35     1     0     0
SMALL
bcc


@<TRIPOS>ATOM
      1 CL           2.3740    -2.6970    -0.8810 cl         1 EKH      -0.097400
      2 C10          1.5740    -1.2590    -0.3950 cc         1 EKH      -0.004800
      3 C2           2.1900    -0.0630     0.0710 ca         1 EKH      -0.389400
      4 C            3.4910     0.4280     0.3030 ca         1 EKH       0.774200
      5 N3           4.5940    -0.2940     0.0860 nv         1 EKH      -0.962500
      6 C4           0.2280    -1.0700    -0.3800 cd         1 EKH      -0.104100
      7 N2          -0.0330     0.2030     0.0780 na         1 EKH      -0.156100
      8 C3           1.1460     0.8220     0.3560 ca         1 EKH       0.507800
      9 N1           1.2870     2.0620     0.8250 nb         1 EKH      -0.752000
     10 C1           2.5480     2.4000     1.0040 ca         1 EKH       0.713900
     11 N            3.6360     1.6700     0.7730 nb         1 EKH      -0.832000
     12 C5          -1.3380     0.7930     0.2210 c5         1 EKH       0.256800
     13 O3          -2.1430    -0.0390     1.0090 os         1 EKH      -0.381600
     14 C8          -3.4610    -0.1340     0.4630 c5         1 EKH       0.106100
     15 C9          -3.7330    -1.5300    -0.0590 c3         1 EKH       0.126400
     16 O           -3.5930    -2.4380     1.0050 oh         1 EKH      -0.574800
     17 C7          -3.5380     0.9350    -0.6300 c5         1 EKH       0.077100
     18 O1          -3.8550     2.2030    -0.1200 oh         1 EKH      -0.562800
     19 C6          -2.0860     0.9670    -1.1010 c5         1 EKH       0.112100
     20 O2          -1.6550     2.1300    -1.7330 oh         1 EKH      -0.547800
     21 H1           4.5600    -1.2070    -0.3330 hn         1 EKH       0.446800
     22 H2           5.4960     0.1300     0.2170 hn         1 EKH       0.446800
     23 H3          -0.5600    -1.7540    -0.6470 h4         1 EKH       0.177000
     24 H4           2.7280     3.3980     1.3890 h5         1 EKH       0.046100
     25 H5          -1.1800     1.7680     0.6930 h2         1 EKH       0.132700
     26 H6          -4.1790     0.0810     1.2620 h1         1 EKH       0.085700
     27 H7          -4.7480    -1.5390    -0.4760 h1         1 EKH       0.019200
     28 H8          -3.0500    -1.7670    -0.8860 h1         1 EKH       0.019200
     29 H9          -3.7320    -3.3250     0.6620 ho         1 EKH       0.406000
     30 H10         -4.2250     0.6400    -1.4340 h1         1 EKH       0.049700
     31 H11         -4.7470     2.1710     0.2400 ho         1 EKH       0.408000
     32 H12         -1.9190     0.0830    -1.7340 h1         1 EKH       0.042700
     33 H13         -2.0020     2.1410    -2.6300 ho         1 EKH       0.411000
@<TRIPOS>BOND
     1     1     2 1   
     2     2     3 1   
     3     2     6 2   
     4     3     4 ar  
     5     3     8 ar  
     6     4     5 1   
     7     4    11 ar  
     8     5    21 1   
     9     5    22 1   
    10     6     7 1   
    11     6    23 1   
    12     7     8 1   
    13     7    12 1   
    14     8     9 ar  
    15     9    10 ar  
    16    10    11 ar  
    17    10    24 1   
    18    12    13 1   
    19    12    19 1   
    20    12    25 1   
    21    13    14 1   
    22    14    15 1   
    23    14    17 1   
    24    14    26 1   
    25    15    16 1   
    26    15    27 1   
    27    15    28 1   
    28    16    29 1   
    29    17    18 1   
    30    17    19 1   
    31    17    30 1   
    32    18    31 1   
    33    19    20 1   
    34    19    32 1   
    35    20    33 1   
@<TRIPOS>SUBSTRUCTURE
     1 EKH         1 TEMP              0 ****  ****    0 ROOT
