@<TRIPOS>MOLECULE
EKI
   36    38     1     0     0
SMALL
abcg2


@<TRIPOS>ATOM
      1 C01          5.5550     3.5180    19.9830 c          1 EKI       0.613600
      2 C03          5.5770     1.1260    20.5320 c          1 EKI       0.626000
      3 C05          7.4640     2.0640    19.3570 ca         1 EKI       0.608900
      4 C06          6.8700     3.3290    19.4090 ca         1 EKI      -0.353600
      5 C08          9.3820     2.8810    18.4020 ca         1 EKI       0.729900
      6 C09          8.8700     4.2200    18.3900 ca         1 EKI      -0.335600
      7 C10          7.6020     4.3930    18.9000 ca         1 EKI       0.085000
      8 C12          2.5490     2.1880    20.3860 c3         1 EKI      -0.109100
      9 C16          9.6630     5.3450    17.8290 c          1 EKI       0.645700
     10 C19          7.2770    -0.3540    19.6620 cx         1 EKI       0.053700
     11 C20          6.4320    -1.4070    19.0210 cx         1 EKI      -0.117400
     12 C21          7.6120    -0.8530    18.2960 cx         1 EKI      -0.117400
     13 N02          5.0150     2.3910    20.5820 n          1 EKI      -0.375400
     14 N04          6.7480     0.9780    19.8080 n          1 EKI      -0.362300
     15 N07          8.6720     1.8560    18.8880 nb         1 EKI      -0.833000
     16 N15         10.5960     2.5770    17.9510 nv         1 EKI      -1.051900
     17 N18          9.2150     6.5900    18.0560 nt         1 EKI      -0.594000
     18 O13          5.0580     0.1860    21.0910 o          1 EKI      -0.536000
     19 O14          4.9660     4.5830    19.9870 o          1 EKI      -0.539000
     20 O17         10.6820     5.1470    17.1700 o          1 EKI      -0.649100
     21 H1           7.1290     5.3660    18.9110 ha         1 EKI       0.133000
     22 H2           3.6600     3.5410    21.6420 h1         1 EKI       0.069200
     23 H3           3.7520     1.8710    22.1500 h1         1 EKI       0.069200
     24 H4           1.6220     2.3080    20.9470 hc         1 EKI       0.045367
     25 H5           2.5050     2.8520    19.5230 hc         1 EKI       0.045367
     26 H6           2.5920     1.1610    20.0280 hc         1 EKI       0.045367
     27 H7           7.9240    -0.6620    20.4760 h1         1 EKI       0.096700
     28 H8           5.4510    -1.1250    18.6630 hc         1 EKI       0.081450
     29 H9           6.4840    -2.4010    19.4440 hc         1 EKI       0.081450
     30 H10          8.5080    -1.4520    18.1990 hc         1 EKI       0.081450
     31 H11          7.4200    -0.1990    17.4560 hc         1 EKI       0.081450
     32 H12         10.8900     1.6150    17.9510 hn         1 EKI       0.523000
     33 H13         11.1500     3.2810    17.4900 hn         1 EKI       0.523000
     34 H14          9.7550     7.3650    17.7060 hn         1 EKI       0.318000
     35 H15          8.4900     6.8120    18.7140 hn         1 EKI       0.318000
     36 C11          3.7320     2.5200    21.2790 c3         1 EKI       0.102000
@<TRIPOS>BOND
     1     1     4 1   
     2     1    13 1   
     3     1    19 2   
     4     2    13 1   
     5     2    14 1   
     6     2    18 2   
     7     3     4 ar  
     8     3    14 1   
     9     3    15 ar  
    10     4     7 ar  
    11     5     6 ar  
    12     5    15 ar  
    13     5    16 1   
    14     6     7 ar  
    15     6     9 1   
    16     7    21 1   
    17     8    24 1   
    18     8    25 1   
    19     8    26 1   
    20     8    36 1   
    21     9    17 1   
    22     9    20 2   
    23    10    11 1   
    24    10    12 1   
    25    10    14 1   
    26    10    27 1   
    27    11    12 1   
    28    11    28 1   
    29    11    29 1   
    30    12    30 1   
    31    12    31 1   
    32    13    36 1   
    33    16    32 1   
    34    16    33 1   
    35    17    34 1   
    36    17    35 1   
    37    22    36 1   
    38    23    36 1   
@<TRIPOS>SUBSTRUCTURE
     1 EKI         1 TEMP              0 ****  ****    0 ROOT
