@<TRIPOS>MOLECULE
EKI
   36    38     1     0     0
SMALL
No Charge or Current Charge


@<TRIPOS>ATOM
      1 C01          5.5710     3.5170    20.0750 c          1 EKI       0.613600
      2 C03          5.5440     1.0890    20.5030 c          1 EKI       0.626000
      3 C05          7.4680     2.0970    19.3600 ca         1 EKI       0.608900
      4 C06          6.9040     3.3630    19.4550 ca         1 EKI      -0.353600
      5 C08          9.3540     2.9560    18.4190 ca         1 EKI       0.729900
      6 C09          8.8890     4.2670    18.4220 ca         1 EKI      -0.335600
      7 C10          7.6130     4.4780    18.9720 ca         1 EKI       0.085000
      8 C12          2.4580     2.3450    20.3310 c3         1 EKI      -0.109100
      9 C16          9.7080     5.3820    17.8560 c          1 EKI       0.645700
     10 C19          7.3580    -0.3910    19.6390 cx         1 EKI       0.053700
     11 C20          6.5890    -1.5880    19.1150 cx         1 EKI      -0.117400
     12 C21          7.6780    -0.9720    18.2770 cx         1 EKI      -0.117400
     13 N02          4.9680     2.3650    20.5800 n          1 EKI      -0.375400
     14 N04          6.7640     0.9480    19.8260 n          1 EKI      -0.362300
     15 N07          8.6980     1.9030    18.8510 nb         1 EKI      -0.833000
     16 N15         10.5310     2.5560    17.9770 nv         1 EKI      -1.051900
     17 N18          9.2980     6.6460    18.0780 nt         1 EKI      -0.594000
     18 O13          4.9900     0.1200    21.0040 o          1 EKI      -0.536000
     19 O14          5.0370     4.6160    20.1390 o          1 EKI      -0.539000
     20 O17         10.7050     5.2030    17.1770 o          1 EKI      -0.649100
     21 H1           7.1700     5.4710    19.0210 ha         1 EKI       0.133000
     22 H2           3.5990     3.4920    21.7650 h1         1 EKI       0.069200
     23 H3           3.5800     1.7710    22.0890 h1         1 EKI       0.069200
     24 H4           1.5180     2.4580    20.8830 hc         1 EKI       0.045367
     25 H5           2.4850     3.1010    19.5380 hc         1 EKI       0.045367
     26 H6           2.4650     1.3520    19.8650 hc         1 EKI       0.045367
     27 H7           8.0740    -0.5600    20.4440 h1         1 EKI       0.096700
     28 H8           5.5630    -1.4390    18.7890 hc         1 EKI       0.081450
     29 H9           6.7850    -2.5520    19.5770 hc         1 EKI       0.081450
     30 H10          8.6110    -1.5180    18.1710 hc         1 EKI       0.081450
     31 H11          7.3790    -0.4040    17.4000 hc         1 EKI       0.081450
     32 H12         10.5440     1.5810    17.7140 hn         1 EKI       0.523000
     33 H13         10.9900     3.2120    17.3510 hn         1 EKI       0.523000
     34 H14          9.8370     7.4060    17.6920 hn         1 EKI       0.318000
     35 H15          8.4870     6.8310    18.6450 hn         1 EKI       0.318000
     36 C11          3.6590     2.5090    21.2800 c3         1 EKI       0.102000
@<TRIPOS>BOND
     1     1     4 1   
     2     1    13 1   
     3     1    19 2   
     4     2    13 1   
     5     2    14 1   
     6     2    18 2   
     7     3     4 ar  
     8     3    14 1   
     9     3    15 ar  
    10     4     7 ar  
    11     5     6 ar  
    12     5    15 ar  
    13     5    16 1   
    14     6     7 ar  
    15     6     9 1   
    16     7    21 1   
    17     8    24 1   
    18     8    25 1   
    19     8    26 1   
    20     8    36 1   
    21     9    17 1   
    22     9    20 2   
    23    10    11 1   
    24    10    12 1   
    25    10    14 1   
    26    10    27 1   
    27    11    12 1   
    28    11    28 1   
    29    11    29 1   
    30    12    30 1   
    31    12    31 1   
    32    13    36 1   
    33    16    32 1   
    34    16    33 1   
    35    17    34 1   
    36    17    35 1   
    37    22    36 1   
    38    23    36 1   
@<TRIPOS>SUBSTRUCTURE
     1 EKI         1 TEMP              0 ****  ****    0 ROOT
