@<TRIPOS>MOLECULE
EKJ
   54    57     1     0     0
SMALL
No Charge or Current Charge


@<TRIPOS>ATOM
      1 C10         -0.0830    -0.8070     1.7370 cc         1 EKJ       0.157200
      2 C11         -0.8980    -2.0670     1.5410 c3         1 EKJ      -0.095400
      3 C12         -2.3670    -1.8020     1.2010 ca         1 EKJ       0.024700
      4 C01          5.3420     1.7690    -1.4710 c3         1 EKJ       0.140900
      5 C03          4.6740    -0.4590    -2.1480 c3         1 EKJ       0.128600
      6 C04          4.6710    -1.9180    -1.6390 c3         1 EKJ       0.094000
      7 C08          2.2320    -1.8660     1.3490 c3         1 EKJ      -0.070400
      8 C13         -3.3320    -2.0390     2.1950 ca         1 EKJ      -0.153000
      9 C14         -4.6900    -1.8030     1.9370 ca         1 EKJ       0.000000
     10 C17         -4.1680    -1.0670    -0.3100 ca         1 EKJ       0.013700
     11 C18         -4.5630    -0.5520    -1.5720 ca         1 EKJ      -0.127000
     12 C19         -3.6140    -0.2840    -2.5700 ca         1 EKJ      -0.012000
     13 C20         -2.2570    -0.5250    -2.3280 ca         1 EKJ      -0.056000
     14 C21         -1.8440    -1.0300    -1.0870 ca         1 EKJ      -0.085000
     15 C22         -2.7850    -1.3040    -0.0640 ca         1 EKJ      -0.069000
     16 C24          0.7810     1.4770     2.0470 ca         1 EKJ      -0.215000
     17 C25          1.0600     2.8420     2.2250 ca         1 EKJ      -0.039000
     18 C26          2.3930     3.2820     2.1210 ca         1 EKJ      -0.053000
     19 C27          3.4220     2.3590     1.8400 ca         1 EKJ      -0.042000
     20 C28          3.1240     0.9930     1.6660 ca         1 EKJ      -0.073000
     21 C29          1.7860     0.5610     1.7780 ca         1 EKJ      -0.060200
     22 N05          4.0210    -2.0550    -0.3260 ns         1 EKJ      -0.452900
     23 N09          1.3120    -0.7380     1.6270 na         1 EKJ      -0.027500
     24 N15         -5.1220    -1.3420     0.6940 na         1 EKJ       0.078300
     25 O02          5.3250     0.3660    -1.1600 os         1 EKJ      -0.473000
     26 O07          1.8710    -1.8290    -1.0400 o          1 EKJ      -0.612100
     27 S23         -0.8430     0.7560     2.1250 ss         1 EKJ       0.346800
     28 H111        -0.4540    -2.6900     0.7560 hc         1 EKJ       0.120200
     29 H1          -0.8220    -2.6720     2.4520 hc         1 EKJ       0.120200
     30 H011         5.8600     2.3290    -0.6820 h1         1 EKJ       0.038700
     31 H012         5.8640     1.9540    -2.4190 h1         1 EKJ       0.038700
     32 H013         4.3210     2.1630    -1.5540 h1         1 EKJ       0.038700
     33 H031         5.2040    -0.4100    -3.1090 h1         1 EKJ       0.046700
     34 H032         3.6400    -0.1280    -2.3100 h1         1 EKJ       0.046700
     35 H042         4.1520    -2.5550    -2.3670 h1         1 EKJ       0.086700
     36 H041         5.7070    -2.2740    -1.5620 h1         1 EKJ       0.086700
     37 H081         1.7520    -2.8210     1.5890 h1         1 EKJ       0.110700
     38 H082         3.1150    -1.7790     1.9910 h1         1 EKJ       0.110700
     39 H131        -3.0370    -2.4060     3.1760 ha         1 EKJ       0.176000
     40 H141        -5.4430    -1.9820     2.7060 h4         1 EKJ       0.192000
     41 H163        -6.8060    -0.1390     0.2490 h1         1 EKJ       0.102700
     42 H161        -6.8700    -1.8050    -0.4080 h1         1 EKJ       0.102700
     43 H162        -7.1490    -1.5160     1.3250 h1         1 EKJ       0.102700
     44 H181        -5.6060    -0.3500    -1.8020 ha         1 EKJ       0.157000
     45 H191        -3.9320     0.1100    -3.5340 ha         1 EKJ       0.165000
     46 H201        -1.5220    -0.3180    -3.1040 ha         1 EKJ       0.166000
     47 H211        -0.7800    -1.1980    -0.9430 ha         1 EKJ       0.157000
     48 H251         0.2620     3.5530     2.4360 ha         1 EKJ       0.158000
     49 H261         2.6290     4.3360     2.2540 ha         1 EKJ       0.162000
     50 H271         4.4500     2.7050     1.7580 ha         1 EKJ       0.161000
     51 H281         3.9330     0.3010     1.4440 ha         1 EKJ       0.156000
     52 H051         4.6140    -2.1300     0.4920 hn         1 EKJ       0.336500
     53 C16         -6.5730    -1.1910     0.4510 c3         1 EKJ       0.006900
     54 C06          2.6670    -1.9180    -0.1160 c          1 EKJ       0.588100
@<TRIPOS>BOND
     1     1     2 1   
     2     1    23 2   
     3     1    27 1   
     4     2     3 1   
     5     2    28 1   
     6     2    29 1   
     7     3     8 ar  
     8     3    15 ar  
     9     4    25 1   
    10     4    30 1   
    11     4    31 1   
    12     4    32 1   
    13     5     6 1   
    14     5    25 1   
    15     5    33 1   
    16     5    34 1   
    17     6    22 1   
    18     6    35 1   
    19     6    36 1   
    20     7    23 1   
    21     7    37 1   
    22     7    38 1   
    23     7    54 1   
    24     8     9 ar  
    25     8    39 1   
    26     9    24 1   
    27     9    40 1   
    28    10    11 ar  
    29    10    15 ar  
    30    10    24 2   
    31    11    12 ar  
    32    11    44 1   
    33    12    13 ar  
    34    12    45 1   
    35    13    14 ar  
    36    13    46 1   
    37    14    15 ar  
    38    14    47 1   
    39    16    17 ar  
    40    16    21 ar  
    41    16    27 1   
    42    17    18 ar  
    43    17    48 1   
    44    18    19 ar  
    45    18    49 1   
    46    19    20 ar  
    47    19    50 1   
    48    20    21 ar  
    49    20    51 1   
    50    21    23 1   
    51    22    52 1   
    52    22    54 1   
    53    24    53 1   
    54    26    54 2   
    55    41    53 1   
    56    42    53 1   
    57    43    53 1   
@<TRIPOS>SUBSTRUCTURE
     1 EKJ         1 TEMP              0 ****  ****    0 ROOT
