@<TRIPOS>MOLECULE
EKJ
   54    57     1     0     0
SMALL
abcg2


@<TRIPOS>ATOM
      1 C10         -0.0860    -0.7350     1.5350 cc         1 EKJ       0.157200
      2 C11         -0.8320    -2.0100     1.3500 c3         1 EKJ      -0.095400
      3 C12         -2.3010    -1.7900     1.1350 ca         1 EKJ       0.024700
      4 C01          6.0080     1.4400    -1.1260 c3         1 EKJ       0.140900
      5 C03          4.8110    -0.3570    -2.0240 c3         1 EKJ       0.128600
      6 C04          4.4280    -1.7980    -1.7460 c3         1 EKJ       0.094000
      7 C08          2.1240    -1.7440     1.2640 c3         1 EKJ      -0.070400
      8 C13         -3.1780    -2.0130     2.1620 ca         1 EKJ      -0.153000
      9 C14         -4.5390    -1.8140     1.9610 ca         1 EKJ       0.000000
     10 C17         -4.1970    -1.1720    -0.2730 ca         1 EKJ       0.013700
     11 C18         -4.7230    -0.7480    -1.5040 ca         1 EKJ      -0.127000
     12 C19         -3.8730    -0.5080    -2.5510 ca         1 EKJ      -0.012000
     13 C20         -2.4860    -0.6800    -2.4140 ca         1 EKJ      -0.056000
     14 C21         -1.9610    -1.0960    -1.2230 ca         1 EKJ      -0.085000
     15 C22         -2.8010    -1.3560    -0.1190 ca         1 EKJ      -0.069000
     16 C24          0.6650     1.5630     1.8840 ca         1 EKJ      -0.215000
     17 C25          0.9090     2.9170     2.0650 ca         1 EKJ      -0.039000
     18 C26          2.2270     3.3310     2.0550 ca         1 EKJ      -0.053000
     19 C27          3.2710     2.4200     1.8640 ca         1 EKJ      -0.042000
     20 C28          3.0300     1.0720     1.6870 ca         1 EKJ      -0.073000
     21 C29          1.7040     0.6550     1.7080 ca         1 EKJ      -0.060200
     22 N05          3.8120    -1.9520    -0.4430 ns         1 EKJ      -0.452900
     23 N09          1.2240    -0.6390     1.5410 na         1 EKJ      -0.027500
     24 N15         -5.0230    -1.4150     0.8000 na         1 EKJ       0.078300
     25 O02          5.6890     0.0760    -1.0180 os         1 EKJ      -0.473000
     26 O07          1.7190    -1.3170    -1.0440 o          1 EKJ      -0.612100
     27 S23         -0.8610     0.7490     1.8030 ss         1 EKJ       0.346800
     28 H111        -0.4060    -2.5670     0.5130 hc         1 EKJ       0.120200
     29 H1          -0.6790    -2.6240     2.2430 hc         1 EKJ       0.120200
     30 H011         6.6820     1.6940    -0.3090 h1         1 EKJ       0.038700
     31 H012         6.5090     1.6730    -2.0730 h1         1 EKJ       0.038700
     32 H013         5.1170     2.0750    -1.0520 h1         1 EKJ       0.038700
     33 H031         5.2760    -0.3010    -3.0180 h1         1 EKJ       0.046700
     34 H032         3.9100     0.2700    -2.0540 h1         1 EKJ       0.046700
     35 H042         3.7480    -2.1490    -2.5210 h1         1 EKJ       0.086700
     36 H041         5.3080    -2.4400    -1.7710 h1         1 EKJ       0.086700
     37 H081         1.6230    -2.6910     1.4530 h1         1 EKJ       0.110700
     38 H082         2.9610    -1.6920     1.9590 h1         1 EKJ       0.110700
     39 H131        -2.8450    -2.3440     3.1340 ha         1 EKJ       0.176000
     40 H141        -5.2490    -1.9810     2.7570 h4         1 EKJ       0.192000
     41 H163        -6.6820    -0.1910     0.4100 h1         1 EKJ       0.102700
     42 H161        -6.8530    -1.8860    -0.1120 h1         1 EKJ       0.102700
     43 H162        -6.9470    -1.4700     1.6040 h1         1 EKJ       0.102700
     44 H181        -5.7840    -0.6090    -1.6430 ha         1 EKJ       0.157000
     45 H191        -4.2810    -0.1810    -3.4980 ha         1 EKJ       0.165000
     46 H201        -1.8350    -0.4840    -3.2540 ha         1 EKJ       0.166000
     47 H211        -0.8900    -1.2280    -1.1350 ha         1 EKJ       0.157000
     48 H251         0.0980     3.6190     2.2020 ha         1 EKJ       0.158000
     49 H261         2.4530     4.3800     2.1900 ha         1 EKJ       0.162000
     50 H271         4.2920     2.7770     1.8550 ha         1 EKJ       0.161000
     51 H281         3.8500     0.3850     1.5330 ha         1 EKJ       0.156000
     52 H051         4.4190    -2.1510     0.3360 hn         1 EKJ       0.336500
     53 C16         -6.4700    -1.2260     0.6620 c3         1 EKJ       0.006900
     54 C06          2.5390    -1.6500    -0.2040 c          1 EKJ       0.588100
@<TRIPOS>BOND
     1     1     2 1   
     2     1    23 2   
     3     1    27 1   
     4     2     3 1   
     5     2    28 1   
     6     2    29 1   
     7     3     8 ar  
     8     3    15 ar  
     9     4    25 1   
    10     4    30 1   
    11     4    31 1   
    12     4    32 1   
    13     5     6 1   
    14     5    25 1   
    15     5    33 1   
    16     5    34 1   
    17     6    22 1   
    18     6    35 1   
    19     6    36 1   
    20     7    23 1   
    21     7    37 1   
    22     7    38 1   
    23     7    54 1   
    24     8     9 ar  
    25     8    39 1   
    26     9    24 1   
    27     9    40 1   
    28    10    11 ar  
    29    10    15 ar  
    30    10    24 2   
    31    11    12 ar  
    32    11    44 1   
    33    12    13 ar  
    34    12    45 1   
    35    13    14 ar  
    36    13    46 1   
    37    14    15 ar  
    38    14    47 1   
    39    16    17 ar  
    40    16    21 ar  
    41    16    27 1   
    42    17    18 ar  
    43    17    48 1   
    44    18    19 ar  
    45    18    49 1   
    46    19    20 ar  
    47    19    50 1   
    48    20    21 ar  
    49    20    51 1   
    50    21    23 1   
    51    22    52 1   
    52    22    54 1   
    53    24    53 1   
    54    26    54 2   
    55    41    53 1   
    56    42    53 1   
    57    43    53 1   
@<TRIPOS>SUBSTRUCTURE
     1 EKJ         1 TEMP              0 ****  ****    0 ROOT
