@<TRIPOS>MOLECULE
EKK
   33    35     1     0     0
SMALL
abcg2


@<TRIPOS>ATOM
      1 O3           3.2830     2.8110     0.7720 oh         1 EKK      -0.698000
      2 C4           1.9660    -0.8330     0.3720 c5         1 EKK       0.310300
      3 C5           0.0850     0.8160     0.1780 cc         1 EKK      -0.128100
      4 C6          -1.2740     0.7670     0.1310 cd         1 EKK      -0.080500
      5 C7          -1.6670    -0.5970     0.2680 ca         1 EKK      -0.242800
      6 C8          -2.8540    -1.3620     0.3100 ca         1 EKK       0.444900
      7 N2          -2.7630    -2.6860     0.4640 nb         1 EKK      -0.307000
      8 C9          -1.5600    -3.2410     0.5780 ca         1 EKK       0.184900
      9 C10         -0.4780    -1.3260     0.3970 ca         1 EKK       0.169500
     10 N3          -0.3850    -2.6470     0.5530 nb         1 EKK      -0.222000
     11 BR          -2.3800     2.2590    -0.0520 br         1 EKK      -0.064700
     12 N            0.5680    -0.4600     0.3420 na         1 EKK      -0.190400
     13 C3           2.6140    -0.9000    -1.0140 c5         1 EKK       0.134300
     14 O1           2.3940    -2.1510    -1.5810 oh         1 EKK      -0.665000
     15 C2           4.0650    -0.5390    -0.6890 c5         1 EKK       0.099300
     16 O2           4.6880    -1.6880    -0.1790 oh         1 EKK      -0.683000
     17 O            2.6750     0.1350     1.0860 os         1 EKK      -0.425000
     18 C1           3.8500     0.5350     0.3760 c5         1 EKK       0.129300
     19 C            3.6940     1.9180    -0.2320 c3         1 EKK       0.143600
     20 H1           3.2090     3.6860     0.3810 ho         1 EKK       0.506000
     21 H2           2.0130    -1.8120     0.8620 h2         1 EKK       0.131700
     22 H3           0.7420     1.6700     0.1450 h4         1 EKK       0.237000
     23 H4          -4.2400     0.1460     0.0790 hn         1 EKK       0.503000
     24 H5          -4.8790    -1.4430     0.2390 hn         1 EKK       0.503000
     25 H6          -1.5520    -4.3180     0.7060 h5         1 EKK       0.045100
     26 H7           2.1950    -0.1000    -1.6380 h1         1 EKK       0.044700
     27 H8           2.6580    -2.1200    -2.5050 ho         1 EKK       0.509000
     28 H9           4.5960    -0.1420    -1.5640 h1         1 EKK       0.050700
     29 H10          5.5880    -1.4580     0.0760 ho         1 EKK       0.506000
     30 H11          4.6760     0.5580     1.0940 h1         1 EKK       0.087700
     31 H12          2.9800     1.8970    -1.0670 h1         1 EKK       0.020200
     32 H13          4.6660     2.1980    -0.6590 h1         1 EKK       0.020200
     33 N1          -4.0780    -0.8360     0.2080 nv         1 EKK      -1.075900
@<TRIPOS>BOND
     1     1    19 1   
     2     1    20 1   
     3     2    12 1   
     4     2    13 1   
     5     2    17 1   
     6     2    21 1   
     7     3     4 2   
     8     3    12 1   
     9     3    22 1   
    10     4     5 1   
    11     4    11 1   
    12     5     6 ar  
    13     5     9 ar  
    14     6     7 ar  
    15     6    33 1   
    16     7     8 ar  
    17     8    10 ar  
    18     8    25 1   
    19     9    10 ar  
    20     9    12 1   
    21    13    14 1   
    22    13    15 1   
    23    13    26 1   
    24    14    27 1   
    25    15    16 1   
    26    15    18 1   
    27    15    28 1   
    28    16    29 1   
    29    17    18 1   
    30    18    19 1   
    31    18    30 1   
    32    19    31 1   
    33    19    32 1   
    34    23    33 1   
    35    24    33 1   
@<TRIPOS>SUBSTRUCTURE
     1 EKK         1 TEMP              0 ****  ****    0 ROOT
