@<TRIPOS>MOLECULE
EKK
   33    35     1     0     0
SMALL
No Charge or Current Charge


@<TRIPOS>ATOM
      1 O3           3.1450     2.2330     1.8150 oh         1 EKK      -0.698000
      2 C4           1.9380    -1.0120    -0.3890 c5         1 EKK       0.310300
      3 C5          -0.0480     0.5410    -0.9220 cc         1 EKK      -0.128100
      4 C6          -1.3960     0.4870    -0.6160 cd         1 EKK      -0.080500
      5 C7          -1.6630    -0.7000     0.1600 ca         1 EKK      -0.242800
      6 C8          -2.8260    -1.2380     0.7220 ca         1 EKK       0.444900
      7 N2          -2.7800    -2.3850     1.4150 nb         1 EKK      -0.307000
      8 C9          -1.5620    -2.9680     1.5230 ca         1 EKK       0.184900
      9 C10         -0.4670    -1.3530     0.3190 ca         1 EKK       0.169500
     10 N3          -0.3950    -2.5110     1.0080 nb         1 EKK      -0.222000
     11 Br          -2.6220     1.8110    -1.1700 br         1 EKK      -0.064700
     12 N            0.5200    -0.6160    -0.3290 na         1 EKK      -0.190400
     13 C3           2.8190    -0.4870    -1.5860 c5         1 EKK       0.134300
     14 O1           2.9300    -1.4040    -2.6820 oh         1 EKK      -0.665000
     15 C2           4.2030    -0.3260    -0.8960 c5         1 EKK       0.099300
     16 O2           4.8790    -1.5970    -0.8050 oh         1 EKK      -0.683000
     17 O            2.6110    -0.6040     0.8320 os         1 EKK      -0.425000
     18 C1           3.7480     0.2290     0.4930 c5         1 EKK       0.129300
     19 C            3.3390     1.7360     0.4800 c3         1 EKK       0.143600
     20 H1           2.8520     3.1710     1.7370 ho         1 EKK       0.506000
     21 H2           1.9300    -2.1090    -0.4230 h2         1 EKK       0.131700
     22 H3           0.5120     1.2810    -1.4840 h4         1 EKK       0.237000
     23 H4          -4.0810     0.3090     0.3080 hn         1 EKK       0.503000
     24 H5          -4.7780    -0.9620     1.2530 hn         1 EKK       0.503000
     25 H6          -1.5140    -3.9010     2.0830 h5         1 EKK       0.045100
     26 H7           2.4660     0.4860    -1.9490 h1         1 EKK       0.044700
     27 H8           3.7280    -1.9420    -2.4480 ho         1 EKK       0.509000
     28 H9           4.8320     0.4010    -1.4290 h1         1 EKK       0.050700
     29 H10          5.7290    -1.4510    -0.3250 ho         1 EKK       0.506000
     30 H11          4.5330     0.0970     1.2500 h1         1 EKK       0.087700
     31 H12          2.4240     1.8700    -0.1100 h1         1 EKK       0.020200
     32 H13          4.1360     2.3080    -0.0140 h1         1 EKK       0.020200
     33 N1          -4.0460    -0.6590     0.6170 nv         1 EKK      -1.075900
@<TRIPOS>BOND
     1     1    19 1   
     2     1    20 1   
     3     2    12 1   
     4     2    13 1   
     5     2    17 1   
     6     2    21 1   
     7     3     4 2   
     8     3    12 1   
     9     3    22 1   
    10     4     5 1   
    11     4    11 1   
    12     5     6 ar  
    13     5     9 ar  
    14     6     7 ar  
    15     6    33 1   
    16     7     8 ar  
    17     8    10 ar  
    18     8    25 1   
    19     9    10 ar  
    20     9    12 1   
    21    13    14 1   
    22    13    15 1   
    23    13    26 1   
    24    14    27 1   
    25    15    16 1   
    26    15    18 1   
    27    15    28 1   
    28    16    29 1   
    29    17    18 1   
    30    18    19 1   
    31    18    30 1   
    32    19    31 1   
    33    19    32 1   
    34    23    33 1   
    35    24    33 1   
@<TRIPOS>SUBSTRUCTURE
     1 EKK         1 TEMP              0 ****  ****    0 ROOT
