@<TRIPOS>MOLECULE
EKL
   65    69     1     0     0
SMALL
No Charge or Current Charge


@<TRIPOS>ATOM
      1 C10         -0.7420    26.4760    10.9080 c3         1 EKL       0.146300
      2 C13          1.2370    23.5100    12.3260 ca         1 EKL      -0.014000
      3 C17          1.9440    23.8780    16.3900 c3         1 EKL      -0.069100
      4 C20          2.1900    25.5710    13.2130 ca         1 EKL      -0.014000
      5 C21          1.2410    26.3150    12.4910 ca         1 EKL      -0.119000
      6 C24         -5.1140    27.9260    14.3560 ca         1 EKL      -0.159000
      7 C26         -8.2940    24.1930    13.4130 ca         1 EKL      -0.094000
      8 C01         -7.2460    27.9180    17.5170 c3         1 EKL      -0.118100
      9 C02         -7.7270    28.2690    16.0970 c3         1 EKL       0.082600
     10 C04         -6.2510    27.1150    14.3890 ca         1 EKL       0.029800
     11 C05         -6.3790    25.9650    13.6170 cp         1 EKL      -0.109000
     12 C06         -5.3390    25.5760    12.7530 ca         1 EKL       0.016000
     13 C07         -4.1640    26.3710    12.6830 ca         1 EKL      -0.203600
     14 C08         -3.0530    25.9410    11.7520 c          1 EKL       0.617700
     15 C11          0.2890    25.6660    11.6830 ca         1 EKL      -0.033300
     16 C12          0.2920    24.2600    11.6070 ca         1 EKL      -0.119000
     17 C14          2.1920    24.1630    13.1320 ca         1 EKL      -0.265500
     18 C16          2.4760    22.6930    15.5480 c3         1 EKL      -0.291400
     19 C23         -4.0650    27.5450    13.4920 ca         1 EKL      -0.055000
     20 C25         -7.6770    25.3580    13.9060 cp         1 EKL      -0.042000
     21 C27         -9.5760    23.8480    13.8940 ca         1 EKL       0.120100
     22 C29        -11.5360    22.3790    13.5980 cy         1 EKL       0.151300
     23 C30        -12.5740    23.2590    12.8230 cy         1 EKL      -0.103400
     24 C31        -13.4460    21.9600    12.7610 cy         1 EKL      -0.092400
     25 C32        -12.0820    21.1900    12.7440 cy         1 EKL      -0.103400
     26 C33        -10.2210    24.6640    14.8680 ca         1 EKL      -0.161000
     27 C34         -9.5960    25.8310    15.3600 ca         1 EKL      -0.102000
     28 C35         -8.3290    26.1440    14.8530 ca         1 EKL      -0.039200
     29 N03         -7.4460    27.2020    15.1210 na         1 EKL      -0.092600
     30 N09         -1.9350    26.7430    11.7140 ns         1 EKL      -0.512900
     31 O18          4.4790    24.0820    14.5140 o          1 EKL      -0.526000
     32 O19          3.6810    21.9620    13.3240 o          1 EKL      -0.526000
     33 O22         -3.1370    24.9340    11.0640 o          1 EKL      -0.597100
     34 O28        -10.1570    22.7000    13.3950 os         1 EKL      -0.338100
     35 S15          3.3940    23.1950    14.0700 sy         1 EKL       1.040500
     36 H101        -1.0250    25.9420     9.9910 h1         1 EKL       0.060200
     37 H102        -0.3010    27.4350    10.6060 h1         1 EKL       0.060200
     38 H131         1.2210    22.4230    12.2570 ha         1 EKL       0.135500
     39 H173         1.4220    23.5070    17.2810 hc         1 EKL       0.050367
     40 H171         2.7650    24.5250    16.7250 hc         1 EKL       0.050367
     41 H172         1.2360    24.4870    15.8150 hc         1 EKL       0.050367
     42 H201         2.9150    26.0940    13.8350 ha         1 EKL       0.135500
     43 H211         1.2450    27.4010    12.5620 ha         1 EKL       0.119500
     44 H241        -5.0350    28.8180    14.9730 ha         1 EKL       0.120000
     45 H261        -7.7950    23.5700    12.6760 ha         1 EKL       0.135000
     46 H013        -7.4740    28.7360    18.2100 hc         1 EKL       0.047700
     47 H011        -7.7430    27.0100    17.8790 hc         1 EKL       0.047700
     48 H012        -6.1630    27.7480    17.5270 hc         1 EKL       0.047700
     49 H022        -7.2370    29.1930    15.7650 h1         1 EKL       0.056200
     50 H021        -8.8070    28.4610    16.1150 h1         1 EKL       0.056200
     51 H061        -5.4450    24.6740    12.1540 ha         1 EKL       0.140000
     52 H121        -0.4430    23.7470    10.9910 ha         1 EKL       0.119500
     53 H162         1.6430    22.0680    15.2070 h1         1 EKL       0.098700
     54 H161         3.1570    22.0780    16.1470 h1         1 EKL       0.098700
     55 H231        -3.1790    28.1740    13.4650 ha         1 EKL       0.106000
     56 H291       -11.7520    22.2700    14.6680 h1         1 EKL       0.049700
     57 H302       -12.2250    23.6230    11.8500 hc         1 EKL       0.061950
     58 H301       -13.0010    24.0980    13.3810 hc         1 EKL       0.061950
     59 H311       -14.0740    21.8450    11.8710 hc         1 EKL       0.053200
     60 H312       -14.0610    21.7790    13.6510 hc         1 EKL       0.053200
     61 H322       -12.0760    20.2090    13.2320 hc         1 EKL       0.061950
     62 H321       -11.6240    21.0920    11.7520 hc         1 EKL       0.061950
     63 H331       -11.2010    24.4030    15.2550 ha         1 EKL       0.118000
     64 H341       -10.0810    26.4560    16.1050 ha         1 EKL       0.116000
     65 H091        -1.9360    27.5580    12.3130 hn         1 EKL       0.319500
@<TRIPOS>BOND
     1     1    15 1   
     2     1    30 1   
     3     1    36 1   
     4     1    37 1   
     5     2    16 ar  
     6     2    17 ar  
     7     2    38 1   
     8     3    18 1   
     9     3    39 1   
    10     3    40 1   
    11     3    41 1   
    12     4     5 ar  
    13     4    17 ar  
    14     4    42 1   
    15     5    15 ar  
    16     5    43 1   
    17     6    10 ar  
    18     6    19 ar  
    19     6    44 1   
    20     7    20 ar  
    21     7    21 ar  
    22     7    45 1   
    23     8     9 1   
    24     8    46 1   
    25     8    47 1   
    26     8    48 1   
    27     9    29 1   
    28     9    49 1   
    29     9    50 1   
    30    10    11 ar  
    31    10    29 1   
    32    11    12 ar  
    33    11    20 1   
    34    12    13 ar  
    35    12    51 1   
    36    13    14 1   
    37    13    19 ar  
    38    14    30 1   
    39    14    33 2   
    40    15    16 ar  
    41    16    52 1   
    42    17    35 1   
    43    18    35 1   
    44    18    53 1   
    45    18    54 1   
    46    19    55 1   
    47    20    28 ar  
    48    21    26 ar  
    49    21    34 1   
    50    22    23 1   
    51    22    25 1   
    52    22    34 1   
    53    22    56 1   
    54    23    24 1   
    55    23    57 1   
    56    23    58 1   
    57    24    25 1   
    58    24    59 1   
    59    24    60 1   
    60    25    61 1   
    61    25    62 1   
    62    26    27 ar  
    63    26    63 1   
    64    27    28 ar  
    65    27    64 1   
    66    28    29 1   
    67    30    65 1   
    68    31    35 2   
    69    32    35 2   
@<TRIPOS>SUBSTRUCTURE
     1 EKL         1 TEMP              0 ****  ****    0 ROOT
