@<TRIPOS>MOLECULE
EKL
   65    69     1     0     0
SMALL
abcg2


@<TRIPOS>ATOM
      1 C10         -0.8520    26.2810    11.0340 c3         1 EKL       0.146300
      2 C13          2.1540    24.1990    12.0110 ca         1 EKL      -0.014000
      3 C17          1.8450    22.2390    15.7360 c3         1 EKL      -0.069100
      4 C20          1.3950    25.3880    13.9730 ca         1 EKL      -0.014000
      5 C21          0.3670    25.9450    13.2290 ca         1 EKL      -0.119000
      6 C24         -5.1890    28.0280    14.2730 ca         1 EKL      -0.159000
      7 C26         -8.3100    24.2620    13.4920 ca         1 EKL      -0.094000
      8 C01         -7.5780    28.4190    17.1380 c3         1 EKL      -0.118100
      9 C02         -7.8890    28.6400    15.6660 c3         1 EKL       0.082600
     10 C04         -6.3430    27.2450    14.2800 ca         1 EKL       0.029800
     11 C05         -6.3710    25.9840    13.6420 cp         1 EKL      -0.109000
     12 C06         -5.2470    25.5140    12.9820 ca         1 EKL       0.016000
     13 C07         -4.1010    26.3010    12.9400 ca         1 EKL      -0.203600
     14 C08         -2.9170    25.7680    12.2120 c          1 EKL       0.617700
     15 C11          0.2180    25.6390    11.8810 ca         1 EKL      -0.033300
     16 C12          1.1180    24.7580    11.2850 ca         1 EKL      -0.119000
     17 C14          2.2830    24.5170    13.3570 ca         1 EKL      -0.265500
     18 C16          3.0070    22.1820    14.7650 c3         1 EKL      -0.291400
     19 C23         -4.0870    27.5440    13.5960 ca         1 EKL      -0.055000
     20 C25         -7.6890    25.4470    13.8630 cp         1 EKL      -0.042000
     21 C27         -9.6260    24.0410    13.8810 ca         1 EKL       0.120100
     22 C29        -11.4860    22.5470    13.8730 cy         1 EKL       0.151300
     23 C30        -12.6660    23.2060    13.1380 cy         1 EKL      -0.103400
     24 C31        -13.3570    21.8280    13.1680 cy         1 EKL      -0.092400
     25 C32        -11.9720    21.1840    13.3790 cy         1 EKL      -0.103400
     26 C33        -10.3100    25.0070    14.6340 ca         1 EKL      -0.161000
     27 C34         -9.6960    26.1930    15.0110 ca         1 EKL      -0.102000
     28 C35         -8.3830    26.4100    14.6190 ca         1 EKL      -0.039200
     29 N03         -7.5600    27.4960    14.8450 na         1 EKL      -0.092600
     30 N09         -2.0270    26.6770    11.7630 ns         1 EKL      -0.512900
     31 O18          3.8030    24.6000    15.4990 o          1 EKL      -0.526000
     32 O19          4.7460    23.6090    13.3890 o          1 EKL      -0.526000
     33 O22         -2.7620    24.5700    12.0180 o          1 EKL      -0.597100
     34 O28        -10.1680    22.8610    13.4950 os         1 EKL      -0.338100
     35 S15          3.6090    23.8020    14.2890 sy         1 EKL       1.040500
     36 H101        -1.1170    25.6100    10.2130 h1         1 EKL       0.060200
     37 H102        -0.4400    27.1820    10.5760 h1         1 EKL       0.060200
     38 H131         2.8480    23.5240    11.5280 ha         1 EKL       0.135500
     39 H173         1.5450    21.2220    15.9850 hc         1 EKL       0.050367
     40 H171         2.1220    22.7410    16.6610 hc         1 EKL       0.050367
     41 H172         0.9780    22.7410    15.3100 hc         1 EKL       0.050367
     42 H201         1.5000    25.6410    15.0200 ha         1 EKL       0.135500
     43 H211        -0.3220    26.6260    13.7120 ha         1 EKL       0.119500
     44 H241        -5.1410    28.9790    14.7840 ha         1 EKL       0.120000
     45 H261        -7.7840    23.5140    12.9100 ha         1 EKL       0.135000
     46 H013        -7.8400    29.3070    17.7130 hc         1 EKL       0.047700
     47 H011        -8.1470    27.5790    17.5380 hc         1 EKL       0.047700
     48 H012        -6.5180    28.2170    17.2900 hc         1 EKL       0.047700
     49 H022        -7.3440    29.5030    15.2830 h1         1 EKL       0.056200
     50 H021        -8.9470    28.8640    15.5270 h1         1 EKL       0.056200
     51 H061        -5.2600    24.5490    12.4920 ha         1 EKL       0.140000
     52 H121         1.0110    24.5070    10.2370 ha         1 EKL       0.119500
     53 H162         2.7500    21.6630    13.8400 h1         1 EKL       0.098700
     54 H161         3.8760    21.6840    15.2010 h1         1 EKL       0.098700
     55 H231        -3.1860    28.1440    13.6100 ha         1 EKL       0.106000
     56 H291       -11.6080    22.6300    14.9600 h1         1 EKL       0.049700
     57 H302       -12.3830    23.4850    12.1210 hc         1 EKL       0.061950
     58 H301       -13.1660    24.0480    13.6150 hc         1 EKL       0.061950
     59 H311       -13.9160    21.5300    12.2830 hc         1 EKL       0.053200
     60 H312       -13.9980    21.7150    14.0420 hc         1 EKL       0.053200
     61 H322       -11.8840    20.3360    14.0570 hc         1 EKL       0.061950
     62 H321       -11.5100    20.9320    12.4230 hc         1 EKL       0.061950
     63 H331       -11.3350    24.8480    14.9410 ha         1 EKL       0.118000
     64 H341       -10.2460    26.9180    15.5960 ha         1 EKL       0.116000
     65 H091        -2.2400    27.6580    11.8140 hn         1 EKL       0.319500
@<TRIPOS>BOND
     1     1    15 1   
     2     1    30 1   
     3     1    36 1   
     4     1    37 1   
     5     2    16 ar  
     6     2    17 ar  
     7     2    38 1   
     8     3    18 1   
     9     3    39 1   
    10     3    40 1   
    11     3    41 1   
    12     4     5 ar  
    13     4    17 ar  
    14     4    42 1   
    15     5    15 ar  
    16     5    43 1   
    17     6    10 ar  
    18     6    19 ar  
    19     6    44 1   
    20     7    20 ar  
    21     7    21 ar  
    22     7    45 1   
    23     8     9 1   
    24     8    46 1   
    25     8    47 1   
    26     8    48 1   
    27     9    29 1   
    28     9    49 1   
    29     9    50 1   
    30    10    11 ar  
    31    10    29 1   
    32    11    12 ar  
    33    11    20 1   
    34    12    13 ar  
    35    12    51 1   
    36    13    14 1   
    37    13    19 ar  
    38    14    30 1   
    39    14    33 2   
    40    15    16 ar  
    41    16    52 1   
    42    17    35 1   
    43    18    35 1   
    44    18    53 1   
    45    18    54 1   
    46    19    55 1   
    47    20    28 ar  
    48    21    26 ar  
    49    21    34 1   
    50    22    23 1   
    51    22    25 1   
    52    22    34 1   
    53    22    56 1   
    54    23    24 1   
    55    23    57 1   
    56    23    58 1   
    57    24    25 1   
    58    24    59 1   
    59    24    60 1   
    60    25    61 1   
    61    25    62 1   
    62    26    27 ar  
    63    26    63 1   
    64    27    28 ar  
    65    27    64 1   
    66    28    29 1   
    67    30    65 1   
    68    31    35 2   
    69    32    35 2   
@<TRIPOS>SUBSTRUCTURE
     1 EKL         1 TEMP              0 ****  ****    0 ROOT
