@<TRIPOS>MOLECULE
EKM
   44    47     1     0     0
SMALL
No Charge or Current Charge


@<TRIPOS>ATOM
      1 C01          5.4700     2.6580     0.4720 c3         1 EKM       0.008900
      2 C03          3.2570     2.4210    -0.6140 ca         1 EKM       0.050700
      3 C04          2.1030     1.6960    -0.9430 ca         1 EKM      -0.178000
      4 C05          1.9880     0.3420    -0.5890 ca         1 EKM       0.095200
      5 C06          0.7280    -0.3770    -0.9330 ce         1 EKM      -0.169200
      6 C07          0.0930    -0.2740    -2.1230 c2         1 EKM      -0.177200
      7 C08         -1.1990    -0.9790    -2.4990 c3         1 EKM      -0.093500
      8 C09         -2.2830    -0.8290    -1.4560 cc         1 EKM       0.142200
      9 C11         -3.9680    -1.0990     0.3170 ca         1 EKM      -0.225000
     10 C12         -4.8810    -1.4650     1.3210 ca         1 EKM      -0.036000
     11 C13         -5.6160    -0.4540     1.9700 ca         1 EKM      -0.055000
     12 C14         -5.4300     0.8980     1.6120 ca         1 EKM      -0.041000
     13 C15         -4.5100     1.2460     0.6020 ca         1 EKM      -0.080000
     14 C16         -3.7820     0.2260    -0.0430 ca         1 EKM      -0.070200
     15 C19          3.0630    -0.2880     0.0910 ca         1 EKM      -0.065000
     16 C20          3.0020    -1.6630     0.4240 ca         1 EKM      -0.070000
     17 C21          4.0660    -2.2880     1.0900 ca         1 EKM      -0.067000
     18 C22          5.2100    -1.5540     1.4280 ca         1 EKM      -0.010000
     19 C23          5.2930    -0.1930     1.0960 ca         1 EKM      -0.132000
     20 C24          4.2280     0.4600     0.4250 ca         1 EKM      -0.030000
     21 N02          4.3100     1.8280     0.0840 na         1 EKM       0.065300
     22 N17         -2.8410     0.3910    -1.0500 na         1 EKM      -0.048500
     23 S10         -2.9520    -2.2390    -0.6010 ss         1 EKM       0.380800
     24 H1           6.3760     2.2740    -0.0120 h1         1 EKM       0.098700
     25 H2           5.3230     3.7000     0.1640 h1         1 EKM       0.098700
     26 H3           5.5960     2.6300     1.5610 h1         1 EKM       0.098700
     27 H4           3.3510     3.4740    -0.8830 h4         1 EKM       0.182000
     28 H5           1.2890     2.1970    -1.4620 ha         1 EKM       0.157000
     29 H6           0.3220    -1.0070    -0.1410 ha         1 EKM       0.209000
     30 H7           0.5100     0.3510    -2.9170 ha         1 EKM       0.194000
     31 H8          -1.5720    -0.5980    -3.4590 hc         1 EKM       0.107700
     32 H9          -0.9960    -2.0440    -2.6670 hc         1 EKM       0.107700
     33 H10         -5.0200    -2.5090     1.5970 ha         1 EKM       0.160000
     34 H11         -6.3270    -0.7160     2.7500 ha         1 EKM       0.162000
     35 H12         -5.9990     1.6750     2.1180 ha         1 EKM       0.161000
     36 H13         -4.3760     2.2930     0.3400 ha         1 EKM       0.151000
     37 H14         -2.0050     2.3160    -0.7990 h1         1 EKM       0.092700
     38 H15         -1.8640     1.6590    -2.4520 h1         1 EKM       0.092700
     39 H16         -3.4370     2.2490    -1.8710 h1         1 EKM       0.092700
     40 H17          2.1390    -2.2690     0.1630 ha         1 EKM       0.140000
     41 H18          4.0070    -3.3450     1.3400 ha         1 EKM       0.161000
     42 H19          6.0360    -2.0430     1.9420 ha         1 EKM       0.163000
     43 H20          6.2030     0.3370     1.3710 ha         1 EKM       0.154000
     44 C18         -2.5160     1.7330    -1.5750 c3         1 EKM       0.021900
@<TRIPOS>BOND
     1     1    21 1   
     2     1    24 1   
     3     1    25 1   
     4     1    26 1   
     5     2     3 ar  
     6     2    21 2   
     7     2    27 1   
     8     3     4 ar  
     9     3    28 1   
    10     4     5 1   
    11     4    15 ar  
    12     5     6 2   
    13     5    29 1   
    14     6     7 1   
    15     6    30 1   
    16     7     8 1   
    17     7    31 1   
    18     7    32 1   
    19     8    22 2   
    20     8    23 1   
    21     9    10 ar  
    22     9    14 ar  
    23     9    23 1   
    24    10    11 ar  
    25    10    33 1   
    26    11    12 ar  
    27    11    34 1   
    28    12    13 ar  
    29    12    35 1   
    30    13    14 ar  
    31    13    36 1   
    32    14    22 1   
    33    15    16 ar  
    34    15    20 ar  
    35    16    17 ar  
    36    16    40 1   
    37    17    18 ar  
    38    17    41 1   
    39    18    19 ar  
    40    18    42 1   
    41    19    20 ar  
    42    19    43 1   
    43    20    21 1   
    44    22    44 1   
    45    37    44 1   
    46    38    44 1   
    47    39    44 1   
@<TRIPOS>SUBSTRUCTURE
     1 EKM         1 TEMP              0 ****  ****    0 ROOT
