@<TRIPOS>MOLECULE
EKM
   44    47     1     0     0
SMALL
bcc


@<TRIPOS>ATOM
      1 C01          5.3350     2.5630     1.0490 c3         1 EKM      -0.020400
      2 C03          3.0550     2.2130     0.3740 ca         1 EKM       0.032700
      3 C04          1.9810     1.4480    -0.0460 ca         1 EKM      -0.196000
      4 C05          2.1350     0.0970    -0.2690 ca         1 EKM       0.095200
      5 C06          1.0070    -0.7240    -0.6990 ce         1 EKM      -0.119200
      6 C07          0.0070    -0.2610    -1.4490 c2         1 EKM      -0.127200
      7 C08         -1.1580    -1.1210    -1.8520 c3         1 EKM      -0.093500
      8 C09         -2.3420    -0.7690    -1.0170 cc         1 EKM       0.142200
      9 C11         -4.0520    -0.6100     0.7240 ca         1 EKM      -0.098100
     10 C12         -4.9520    -0.6700     1.7790 ca         1 EKM      -0.054000
     11 C13         -5.9010     0.3310     1.8650 ca         1 EKM      -0.073000
     12 C14         -5.9510     1.3640     0.9220 ca         1 EKM      -0.059000
     13 C15         -5.0580     1.4230    -0.1290 ca         1 EKM      -0.098000
     14 C16         -4.1040     0.4160    -0.2150 ca         1 EKM      -0.070200
     15 C19          3.4200    -0.4750    -0.0460 ca         1 EKM      -0.065000
     16 C20          3.6890    -1.8440    -0.2660 ca         1 EKM      -0.088000
     17 C21          4.9330    -2.3630    -0.0380 ca         1 EKM      -0.085000
     18 C22          5.9670    -1.5320     0.4200 ca         1 EKM      -0.028000
     19 C23          5.7540    -0.1960     0.6340 ca         1 EKM      -0.150000
     20 C24          4.4820     0.3510     0.3990 ca         1 EKM       0.020700
     21 N02          4.2510     1.6920     0.5930 na         1 EKM       0.043900
     22 N17         -3.1170     0.2790    -1.1840 na         1 EKM      -0.019200
     23 S10         -2.7590    -1.6940     0.3420 ss         1 EKM       0.253900
     24 H1           6.1500     2.5500     0.3300 h1         1 EKM       0.098700
     25 H2           4.9570     3.5750     1.1390 h1         1 EKM       0.098700
     26 H3           5.6940     2.2320     2.0210 h1         1 EKM       0.098700
     27 H4           2.9440     3.2720     0.5530 h4         1 EKM       0.200000
     28 H5           1.0270     1.9400    -0.1640 ha         1 EKM       0.175000
     29 H6           0.9980    -1.7640    -0.3970 ha         1 EKM       0.159000
     30 H7           0.0020     0.7640    -1.8010 ha         1 EKM       0.144000
     31 H8          -1.3930    -0.9970    -2.9100 hc         1 EKM       0.107700
     32 H9          -0.9260    -2.1760    -1.7010 hc         1 EKM       0.107700
     33 H10         -4.9090    -1.4700     2.5050 ha         1 EKM       0.178000
     34 H11         -6.6150     0.3150     2.6760 ha         1 EKM       0.180000
     35 H12         -6.7030     2.1340     1.0190 ha         1 EKM       0.179000
     36 H13         -5.1040     2.2280    -0.8500 ha         1 EKM       0.169000
     37 H14         -2.7170     2.2170    -1.8490 h1         1 EKM       0.092700
     38 H15         -2.2440     0.9350    -2.9780 h1         1 EKM       0.092700
     39 H16         -3.9490     1.3290    -2.7770 h1         1 EKM       0.092700
     40 H17          2.9050    -2.4940    -0.6260 ha         1 EKM       0.158000
     41 H18          5.1210    -3.4130    -0.2120 ha         1 EKM       0.179000
     42 H19          6.9490    -1.9470     0.6040 ha         1 EKM       0.181000
     43 H20          6.5720     0.4190     0.9790 ha         1 EKM       0.172000
     44 C18         -2.9940     1.2510    -2.2640 c3         1 EKM      -0.007400
@<TRIPOS>BOND
     1     1    21 1   
     2     1    24 1   
     3     1    25 1   
     4     1    26 1   
     5     2     3 ar  
     6     2    21 2   
     7     2    27 1   
     8     3     4 ar  
     9     3    28 1   
    10     4     5 1   
    11     4    15 ar  
    12     5     6 2   
    13     5    29 1   
    14     6     7 1   
    15     6    30 1   
    16     7     8 1   
    17     7    31 1   
    18     7    32 1   
    19     8    22 2   
    20     8    23 1   
    21     9    10 ar  
    22     9    14 ar  
    23     9    23 1   
    24    10    11 ar  
    25    10    33 1   
    26    11    12 ar  
    27    11    34 1   
    28    12    13 ar  
    29    12    35 1   
    30    13    14 ar  
    31    13    36 1   
    32    14    22 1   
    33    15    16 ar  
    34    15    20 ar  
    35    16    17 ar  
    36    16    40 1   
    37    17    18 ar  
    38    17    41 1   
    39    18    19 ar  
    40    18    42 1   
    41    19    20 ar  
    42    19    43 1   
    43    20    21 1   
    44    22    44 1   
    45    37    44 1   
    46    38    44 1   
    47    39    44 1   
@<TRIPOS>SUBSTRUCTURE
     1 EKM         1 TEMP              0 ****  ****    0 ROOT
