@<TRIPOS>MOLECULE
EKN
   22    21     1     0     0
SMALL
bcc


@<TRIPOS>ATOM
      1 OD1          2.1700    -1.7430     1.0750 o          1 EKN      -0.880800
      2 CG           2.2110    -1.2960    -0.0910 c          1 EKN       0.934600
      3 OD2          2.5710    -1.9280    -1.1060 o          1 EKN      -0.880800
      4 CB           1.8150     0.1770    -0.2760 c3         1 EKN      -0.172400
      5 CA           0.4430     0.5020     0.3150 c3         1 EKN       0.051500
      6 C            0.1990     2.0260     0.2100 c          1 EKN       0.896600
      7 OXT          0.7120     2.7350     1.1020 o          1 EKN      -0.874300
      8 O           -0.4490     2.4340    -0.7760 o          1 EKN      -0.874300
      9 N           -0.5630    -0.3200    -0.3350 n7         1 EKN      -0.772200
     10 CAG         -1.8520    -0.2850     0.3250 c3         1 EKN       0.169800
     11 CAF         -2.8440    -1.2010    -0.3740 c3         1 EKN       0.135800
     12 NAA         -4.1380    -1.1540     0.2930 n8         1 EKN      -0.890800
     13 H2           2.5640     0.8060     0.2170 hc         1 EKN       0.018200
     14 H3           1.8280     0.4480    -1.3360 hc         1 EKN       0.018200
     15 H4           0.4670     0.2250     1.3730 h1         1 EKN       0.057700
     16 H6          -0.6820     0.0390    -1.2760 hn         1 EKN       0.339800
     17 H8          -1.7270    -0.6270     1.3570 h1         1 EKN       0.025200
     18 H9          -2.2810     0.7290     0.3840 h1         1 EKN       0.025200
     19 H10         -2.8920    -0.9310    -1.4400 h1         1 EKN       0.026200
     20 H11         -2.4680    -2.2270    -0.3320 h1         1 EKN       0.026200
     21 H12         -4.5550    -0.2440     0.1440 hn         1 EKN       0.310800
     22 H13         -4.7670    -1.8150    -0.1430 hn         1 EKN       0.310800
@<TRIPOS>BOND
     1     1     2 1   
     2     2     3 1   
     3     2     4 1   
     4     4     5 1   
     5     4    13 1   
     6     4    14 1   
     7     5     6 1   
     8     5     9 1   
     9     5    15 1   
    10     6     7 1   
    11     6     8 1   
    12     9    10 1   
    13     9    16 1   
    14    10    11 1   
    15    10    17 1   
    16    10    18 1   
    17    11    12 1   
    18    11    19 1   
    19    11    20 1   
    20    12    21 1   
    21    12    22 1   
@<TRIPOS>SUBSTRUCTURE
     1 EKN         1 TEMP              0 ****  ****    0 ROOT
