@<TRIPOS>MOLECULE
EKN
   22    21     1     0     0
SMALL
No Charge or Current Charge


@<TRIPOS>ATOM
      1 OD1          3.1310    -1.1730     1.0950 o          1 EKN      -0.775500
      2 CG           2.4720    -1.1930     0.0640 c          1 EKN       0.724000
      3 OD2          2.2910    -2.2110    -0.5890 o          1 EKN      -0.775500
      4 CB           1.8680     0.1330    -0.4350 c3         1 EKN      -0.172400
      5 CA           0.5130     0.4320     0.2700 c3         1 EKN       0.051500
      6 C            0.2470     1.9930     0.3500 c          1 EKN       0.686000
      7 OXT          0.2020     2.5230     1.4520 o          1 EKN      -0.769000
      8 O            0.0250     2.6080    -0.6870 o          1 EKN      -0.769000
      9 N           -0.5920    -0.3470    -0.3860 n7         1 EKN      -0.827400
     10 CAG         -1.8920    -0.3260     0.3230 c3         1 EKN       0.169800
     11 CAF         -2.9600    -1.1810    -0.4230 c3         1 EKN       0.135800
     12 NAA         -4.2900    -1.1720     0.2350 n8         1 EKN      -1.001200
     13 H2           2.5260     0.9550    -0.1290 hc         1 EKN       0.018200
     14 H3           1.6820     0.1090    -1.5170 hc         1 EKN       0.018200
     15 H4           0.6170     0.1010     1.3130 h1         1 EKN       0.057700
     16 H6          -0.7360     0.0580    -1.3180 hn         1 EKN       0.395000
     17 H8          -1.7710    -0.7210     1.3410 h1         1 EKN       0.025200
     18 H9          -2.2600     0.7050     0.4070 h1         1 EKN       0.025200
     19 H10         -3.0810    -0.8000    -1.4470 h1         1 EKN       0.026200
     20 H11         -2.6130    -2.2220    -0.4850 h1         1 EKN       0.026200
     21 H12         -4.6650    -0.2160     0.2160 hn         1 EKN       0.366000
     22 H13         -4.9510    -1.7060    -0.3410 hn         1 EKN       0.366000
@<TRIPOS>BOND
     1     1     2 1   
     2     2     3 1   
     3     2     4 1   
     4     4     5 1   
     5     4    13 1   
     6     4    14 1   
     7     5     6 1   
     8     5     9 1   
     9     5    15 1   
    10     6     7 1   
    11     6     8 1   
    12     9    10 1   
    13     9    16 1   
    14    10    11 1   
    15    10    17 1   
    16    10    18 1   
    17    11    12 1   
    18    11    19 1   
    19    11    20 1   
    20    12    21 1   
    21    12    22 1   
@<TRIPOS>SUBSTRUCTURE
     1 EKN         1 TEMP              0 ****  ****    0 ROOT
