@<TRIPOS>MOLECULE
EKO
   39    41     1     0     0
SMALL
bcc


@<TRIPOS>ATOM
      1 O            0.5370    -0.1900     0.8390 os         1 EKO      -0.409600
      2 CL1         -3.4320     0.1860     2.6660 cl         1 EKO      -0.115400
      3 CL2         -4.7850     2.5320    -1.9470 cl         1 EKO      -0.107400
      4 CL3          6.6710     1.4760    -0.8350 cl         1 EKO      -0.111400
      5 CB          -0.7370    -0.4980     1.3420 c3         1 EKO       0.200400
      6 CG          -1.7420     0.2880     0.5390 ca         1 EKO      -0.061300
      7 CZ          -3.6190     1.6700    -1.0010 ca         1 EKO       0.038400
      8 CB2          1.6110    -0.6090     1.6500 c3         1 EKO       0.185700
      9 CB3         -1.0460    -2.0050     1.2650 c3         1 EKO      -0.122700
     10 CD1         -2.9930     0.6250     1.0440 ca         1 EKO       0.046400
     11 ND1         -2.1450    -2.8170    -0.8290 nc         1 EKO      -0.668000
     12 CD2         -1.4670     0.6650    -0.7740 ca         1 EKO      -0.079000
     13 CD3          3.0740     1.2750     0.8690 ca         1 EKO      -0.102000
     14 CD4          3.8740    -0.9670     0.6140 ca         1 EKO      -0.102000
     15 CD5          0.0900    -2.7880    -0.9090 cd         1 EKO      -0.247600
     16 CE1         -3.9370     1.3130     0.2970 ca         1 EKO      -0.118000
     17 CE2         -2.3880     1.3500    -1.5480 ca         1 EKO      -0.126000
     18 NE2         -0.4060    -3.2230    -2.1030 na         1 EKO      -0.301900
     19 CE3          4.2360     1.7640     0.2950 ca         1 EKO      -0.125500
     20 CE4          5.0480    -0.4950     0.0400 ca         1 EKO      -0.125500
     21 CE5         -1.7490    -3.2230    -2.0090 cd         1 EKO       0.386400
     22 CG2          2.8800    -0.0940     1.0370 ca         1 EKO      -0.087300
     23 CG4         -1.0040    -2.5400    -0.1250 cc         1 EKO       0.306600
     24 CZ2          5.2150     0.8700    -0.1160 ca         1 EKO       0.033400
     25 HB          -0.8010    -0.1970     2.3970 h1         1 EKO       0.051700
     26 HB2          1.4920    -0.2190     2.6710 h1         1 EKO       0.032700
     27 HB2A         1.6620    -1.7010     1.7310 h1         1 EKO       0.032700
     28 HB3         -0.3510    -2.5430     1.9150 hc         1 EKO       0.062700
     29 HB3A        -2.0390    -2.1770     1.6830 hc         1 EKO       0.062700
     30 HD2         -0.5090     0.4150    -1.2060 ha         1 EKO       0.155000
     31 HD3          2.3140     1.9760     1.1910 ha         1 EKO       0.138500
     32 HD4          3.7400    -2.0350     0.7320 ha         1 EKO       0.138500
     33 HD5          1.1480    -2.7020    -0.7250 h4         1 EKO       0.176000
     34 HE1         -4.8980     1.5650     0.7240 ha         1 EKO       0.161000
     35 HE2         -2.1460     1.6290    -2.5640 ha         1 EKO       0.148000
     36 HNE2         0.1340    -3.5010    -2.9070 hn         1 EKO       0.300700
     37 HE3          4.3790     2.8290     0.1700 ha         1 EKO       0.148000
     38 HE4          5.8140    -1.1870    -0.2840 ha         1 EKO       0.148000
     39 HE5         -2.3860    -3.5320    -2.8220 h5         1 EKO       0.055100
@<TRIPOS>BOND
     1     1     5 1   
     2     1     8 1   
     3     2    10 1   
     4     3     7 1   
     5     4    24 1   
     6     5     6 1   
     7     5     9 1   
     8     5    25 1   
     9     6    10 ar  
    10     6    12 ar  
    11     7    16 ar  
    12     7    17 ar  
    13     8    22 1   
    14     8    26 1   
    15     8    27 1   
    16     9    23 1   
    17     9    28 1   
    18     9    29 1   
    19    10    16 ar  
    20    11    21 2   
    21    11    23 1   
    22    12    17 ar  
    23    12    30 1   
    24    13    19 ar  
    25    13    22 ar  
    26    13    31 1   
    27    14    20 ar  
    28    14    22 ar  
    29    14    32 1   
    30    15    18 1   
    31    15    23 2   
    32    15    33 1   
    33    16    34 1   
    34    17    35 1   
    35    18    21 1   
    36    18    36 1   
    37    19    24 ar  
    38    19    37 1   
    39    20    24 ar  
    40    20    38 1   
    41    21    39 1   
@<TRIPOS>SUBSTRUCTURE
     1 EKO         1 TEMP              0 ****  ****    0 ROOT
