@<TRIPOS>MOLECULE
EKO
   39    41     1     0     0
SMALL
No Charge or Current Charge


@<TRIPOS>ATOM
      1 O            0.5270    -0.1740     0.8530 os         1 EKO      -0.456000
      2 Cl1         -3.4640     0.3610     2.7520 cl         1 EKO      -0.207000
      3 Cl2         -4.8970     2.6090    -2.0000 cl         1 EKO      -0.199000
      4 Cl3          6.7890     1.4470    -0.8400 cl         1 EKO      -0.203000
      5 CB          -0.8000    -0.4900     1.3280 c3         1 EKO       0.223600
      6 CG          -1.8270     0.2980     0.5030 ca         1 EKO      -0.061300
      7 CZ          -3.7190     1.7230    -1.0410 ca         1 EKO       0.130000
      8 CB2          1.6220    -0.5550     1.7070 c3         1 EKO       0.208900
      9 CB3         -1.0440    -2.0180     1.2440 c3         1 EKO      -0.122700
     10 CD1         -3.0540     0.7170     1.0730 ca         1 EKO       0.138000
     11 ND1         -2.0920    -3.0200    -0.7910 nc         1 EKO      -0.668000
     12 CD2         -1.5720     0.5970    -0.8550 ca         1 EKO      -0.061000
     13 CD3          3.2370     1.3110     1.1070 ca         1 EKO      -0.084000
     14 CD4          3.7930    -0.9640     0.4420 ca         1 EKO      -0.084000
     15 CD5          0.1400    -2.7340    -0.9350 cd         1 EKO      -0.215000
     16 CE1         -3.9900     1.4270     0.3020 ca         1 EKO      -0.100000
     17 CE2         -2.5130     1.3070    -1.6210 ca         1 EKO      -0.108000
     18 NE2         -0.3320    -3.2870    -2.1150 na         1 EKO      -0.301500
     19 CE3          4.4280     1.7740     0.5200 ca         1 EKO      -0.107500
     20 CE4          4.9840    -0.5000    -0.1450 ca         1 EKO      -0.107500
     21 CE5         -1.6990    -3.4460    -1.9840 cd         1 EKO       0.386400
     22 CG2          2.9140    -0.0600     1.0720 ca         1 EKO      -0.087300
     23 CG4         -0.9690    -2.5760    -0.1510 cc         1 EKO       0.241300
     24 CZ2          5.3000     0.8680    -0.1050 ca         1 EKO       0.125000
     25 HB          -0.8820    -0.1830     2.3790 h1         1 EKO       0.051700
     26 HB2          1.5120    -0.1060     2.7030 h1         1 EKO       0.032700
     27 HB2A         1.6730    -1.6440     1.8280 h1         1 EKO       0.032700
     28 HB3         -0.3390    -2.5500     1.8910 hc         1 EKO       0.062700
     29 HB3A        -2.0340    -2.2270     1.6670 hc         1 EKO       0.062700
     30 HD2         -0.6460     0.2740    -1.3250 ha         1 EKO       0.137000
     31 HD3          2.5630     2.0180     1.5870 ha         1 EKO       0.120500
     32 HD4          3.5550    -2.0250     0.4060 ha         1 EKO       0.120500
     33 HD5          1.1800    -2.4930    -0.7480 h4         1 EKO       0.158000
     34 HE1         -4.9290     1.7450     0.7470 ha         1 EKO       0.143000
     35 HE2         -2.3070     1.5320    -2.6650 ha         1 EKO       0.130000
     36 HNE2         0.2080    -3.5400    -2.9350 hn         1 EKO       0.351000
     37 HE3          4.6750     2.8330     0.5480 ha         1 EKO       0.130000
     38 HE4          5.6610    -1.1990    -0.6300 ha         1 EKO       0.130000
     39 HE5         -2.3170    -3.8650    -2.7690 h5         1 EKO       0.055100
@<TRIPOS>BOND
     1     1     5 1   
     2     1     8 1   
     3     2    10 1   
     4     3     7 1   
     5     4    24 1   
     6     5     6 1   
     7     5     9 1   
     8     5    25 1   
     9     6    10 ar  
    10     6    12 ar  
    11     7    16 ar  
    12     7    17 ar  
    13     8    22 1   
    14     8    26 1   
    15     8    27 1   
    16     9    23 1   
    17     9    28 1   
    18     9    29 1   
    19    10    16 ar  
    20    11    21 2   
    21    11    23 1   
    22    12    17 ar  
    23    12    30 1   
    24    13    19 ar  
    25    13    22 ar  
    26    13    31 1   
    27    14    20 ar  
    28    14    22 ar  
    29    14    32 1   
    30    15    18 1   
    31    15    23 2   
    32    15    33 1   
    33    16    34 1   
    34    17    35 1   
    35    18    21 1   
    36    18    36 1   
    37    19    24 ar  
    38    19    37 1   
    39    20    24 ar  
    40    20    38 1   
    41    21    39 1   
@<TRIPOS>SUBSTRUCTURE
     1 EKO         1 TEMP              0 ****  ****    0 ROOT
