@<TRIPOS>MOLECULE
EKP
   73    77     1     0     0
SMALL
No Charge or Current Charge


@<TRIPOS>ATOM
      1 C10         -4.9550     0.1720    -1.7540 c3         1 EKP       0.166000
      2 C13         -2.8660    -1.2340    -1.7020 c          1 EKP       0.620700
      3 C17          0.1270    -0.8610     0.7180 ca         1 EKP      -0.133000
      4 C20         -0.6900    -2.4890    -1.4580 ca         1 EKP       0.001000
      5 C22          2.6330    -3.4070    -0.1350 cc         1 EKP      -0.027300
      6 C28          3.7460     0.2040     0.3700 ca         1 EKP      -0.101500
      7 C01         -7.6680     1.0340     0.8380 ca         1 EKP      -0.046300
      8 C02         -7.2270     2.2980     1.2820 ca         1 EKP      -0.109000
      9 C03         -6.0600     2.8720     0.7500 ca         1 EKP      -0.112000
     10 C04         -5.3230     2.1910    -0.2320 ca         1 EKP      -0.104000
     11 C05         -5.7500     0.9290    -0.6920 ca         1 EKP      -0.096300
     12 C06         -6.9190     0.3590    -0.1480 ca         1 EKP      -0.091000
     13 C07         -8.9160     0.3900     1.3940 cx         1 EKP      -0.082400
     14 C08        -10.1420     1.1940     1.7690 cx         1 EKP      -0.124900
     15 C09         -9.3200     0.5290     2.8460 cx         1 EKP      -0.124900
     16 C12         -4.8110     0.9780    -3.0620 c3         1 EKP      -0.099100
     17 C14         -1.5410    -1.4490    -1.0050 ca         1 EKP      -0.198600
     18 C16         -1.1160    -0.6370     0.0890 ca         1 EKP      -0.082000
     19 C18          0.9340    -1.9060     0.2440 ca         1 EKP      -0.018200
     20 C19          0.5360    -2.6820    -0.8070 ca         1 EKP      -0.107800
     21 C23          1.6030    -3.6320    -1.0430 cd         1 EKP      -0.139400
     22 C27          3.9400    -0.6840     1.4450 ca         1 EKP      -0.164300
     23 C29          4.7250     1.1600     0.0510 ca         1 EKP      -0.114500
     24 C30          5.9230     1.2570     0.7940 ca         1 EKP       0.026700
     25 C31          6.1040     0.3660     1.8780 ca         1 EKP      -0.114500
     26 C32          5.1240    -0.5900     2.1970 ca         1 EKP      -0.101500
     27 C33          6.9640     2.3360     0.4060 c3         1 EKP      -0.159700
     28 C34          6.3470     3.7360     0.7060 c3         1 EKP      -0.052100
     29 C35          8.2960     2.2280     1.2080 c3         1 EKP      -0.052100
     30 C36          7.3010     2.1610    -1.1120 c          1 EKP       0.725000
     31 N11         -3.6520    -0.2130    -1.2190 ns         1 EKP      -0.510900
     32 N21          2.1880    -2.3340     0.6640 na         1 EKP      -0.075700
     33 O15         -3.2290    -1.9290    -2.6420 o          1 EKP      -0.622100
     34 O37          7.8460     1.1240    -1.4670 o          1 EKP      -0.717500
     35 O38          7.0060     3.0500    -1.9000 o          1 EKP      -0.717500
     36 H1          -5.5010    -0.7500    -1.9960 h1         1 EKP       0.066700
     37 H2           0.4430    -0.2290     1.5440 ha         1 EKP       0.117000
     38 H3          -0.9730    -3.1250    -2.2930 ha         1 EKP       0.130000
     39 H4           0.5720    -4.9910    -2.3770 hc         1 EKP       0.034033
     40 H5           2.0810    -4.3280    -3.0290 hc         1 EKP       0.034033
     41 H6           2.1230    -5.5950    -1.7890 hc         1 EKP       0.034033
     42 H7           3.3750    -2.5450     2.3720 h1         1 EKP       0.048700
     43 H8           2.1570    -1.2830     2.4960 h1         1 EKP       0.048700
     44 H10         -7.7810     2.8430     2.0410 ha         1 EKP       0.108000
     45 H11         -5.7270     3.8460     1.1000 ha         1 EKP       0.111000
     46 H12         -4.4200     2.6460    -0.6310 ha         1 EKP       0.119000
     47 H13         -7.2500    -0.6180    -0.4960 ha         1 EKP       0.115000
     48 H14         -9.1110    -0.5810     0.9430 hc         1 EKP       0.081700
     49 H15        -10.0940     2.2770     1.6880 hc         1 EKP       0.071700
     50 H16        -11.1150     0.7670     1.5380 hc         1 EKP       0.071700
     51 H17         -9.7410    -0.3450     3.3380 hc         1 EKP       0.071700
     52 H18         -8.7170     1.1630     3.4910 hc         1 EKP       0.071700
     53 H19         -4.2140     1.8840    -2.9070 hc         1 EKP       0.043700
     54 H20         -4.3220     0.3770    -3.8370 hc         1 EKP       0.043700
     55 H21         -5.7970     1.2750    -3.4370 hc         1 EKP       0.043700
     56 H22         -1.7360     0.1740     0.4620 ha         1 EKP       0.100000
     57 H26          4.5470     1.8320    -0.7850 ha         1 EKP       0.122500
     58 H27          6.9980     0.3990     2.4930 ha         1 EKP       0.122500
     59 H28          5.2900    -1.2620     3.0370 ha         1 EKP       0.094000
     60 H29          6.1020     3.8300     1.7710 hc         1 EKP       0.017867
     61 H30          7.0500     4.5390     0.4520 hc         1 EKP       0.017867
     62 H31          5.4240     3.9020     0.1380 hc         1 EKP       0.017867
     63 H32          8.7520     1.2370     1.0960 hc         1 EKP       0.017867
     64 H33          9.0200     2.9700     0.8490 hc         1 EKP       0.017867
     65 H34          8.1340     2.4150     2.2770 hc         1 EKP       0.017867
     66 H35         -3.2920     0.3030    -0.4290 hn         1 EKP       0.317500
     67 C24          1.5940    -4.6920    -2.1170 c3         1 EKP      -0.011900
     68 C26          2.8900    -1.7330     1.8160 c3         1 EKP       0.134900
     69 C25          3.9560    -4.1120     0.0220 c3         1 EKP      -0.040900
     70 H9           2.8370     0.1630    -0.2240 ha         1 EKP       0.094000
     71 H23          3.9020    -4.8640     0.8170 hc         1 EKP       0.052033
     72 H24          4.2500    -4.6170    -0.9040 hc         1 EKP       0.052033
     73 H25          4.7530    -3.4030     0.2780 hc         1 EKP       0.052033
@<TRIPOS>BOND
     1     1    11 1   
     2     1    16 1   
     3     1    31 1   
     4     1    36 1   
     5     2    17 1   
     6     2    31 1   
     7     2    33 2   
     8     3    18 ar  
     9     3    19 ar  
    10     3    37 1   
    11     4    17 ar  
    12     4    20 ar  
    13     4    38 1   
    14     5    21 2   
    15     5    32 1   
    16     5    69 1   
    17     6    22 ar  
    18     6    23 ar  
    19     6    70 1   
    20     7     8 ar  
    21     7    12 ar  
    22     7    13 1   
    23     8     9 ar  
    24     8    44 1   
    25     9    10 ar  
    26     9    45 1   
    27    10    11 ar  
    28    10    46 1   
    29    11    12 ar  
    30    12    47 1   
    31    13    14 1   
    32    13    15 1   
    33    13    48 1   
    34    14    15 1   
    35    14    49 1   
    36    14    50 1   
    37    15    51 1   
    38    15    52 1   
    39    16    53 1   
    40    16    54 1   
    41    16    55 1   
    42    17    18 ar  
    43    18    56 1   
    44    19    20 ar  
    45    19    32 1   
    46    20    21 1   
    47    21    67 1   
    48    22    26 ar  
    49    22    68 1   
    50    23    24 ar  
    51    23    57 1   
    52    24    25 ar  
    53    24    27 1   
    54    25    26 ar  
    55    25    58 1   
    56    26    59 1   
    57    27    28 1   
    58    27    29 1   
    59    27    30 1   
    60    28    60 1   
    61    28    61 1   
    62    28    62 1   
    63    29    63 1   
    64    29    64 1   
    65    29    65 1   
    66    30    34 1   
    67    30    35 1   
    68    31    66 1   
    69    32    68 1   
    70    39    67 1   
    71    40    67 1   
    72    41    67 1   
    73    42    68 1   
    74    43    68 1   
    75    69    71 1   
    76    69    72 1   
    77    69    73 1   
@<TRIPOS>SUBSTRUCTURE
     1 EKP         1 TEMP              0 ****  ****    0 ROOT
