@<TRIPOS>MOLECULE
EKP
   73    77     1     0     0
SMALL
bcc


@<TRIPOS>ATOM
      1 C10         -4.9490     0.5930    -1.7180 c3         1 EKP       0.166000
      2 C13         -2.7280    -0.4690    -1.6910 c          1 EKP       0.687700
      3 C17          0.1480    -0.0250     0.7700 ca         1 EKP      -0.151000
      4 C20         -0.7370    -1.8370    -1.2100 ca         1 EKP      -0.017000
      5 C22          2.3330    -2.8730     0.4030 cc         1 EKP      -0.027300
      6 C28          3.9110     0.6340     0.5360 ca         1 EKP      -0.119500
      7 C01         -7.9640     0.4730     0.6090 ca         1 EKP      -0.046300
      8 C02         -7.7590     1.6280     1.3650 ca         1 EKP      -0.127000
      9 C03         -6.6600     2.4390     1.1270 ca         1 EKP      -0.130000
     10 C04         -5.7470     2.1190     0.1320 ca         1 EKP      -0.122000
     11 C05         -5.9300     0.9700    -0.6320 ca         1 EKP      -0.096300
     12 C06         -7.0340     0.1630    -0.3820 ca         1 EKP      -0.109000
     13 C07         -9.1200    -0.4280     0.8290 cx         1 EKP      -0.082400
     14 C08        -10.4680     0.1110     1.2300 cx         1 EKP      -0.124900
     15 C09         -9.6640    -0.6710     2.2120 cx         1 EKP      -0.124900
     16 C12         -4.8450     1.6750    -2.7910 c3         1 EKP      -0.099100
     17 C14         -1.4730    -0.6960    -0.9190 ca         1 EKP      -0.198600
     18 C16         -1.0150     0.2050     0.0620 ca         1 EKP      -0.100000
     19 C18          0.8610    -1.1900     0.4910 ca         1 EKP      -0.018200
     20 C19          0.4320    -2.0980    -0.5010 ca         1 EKP      -0.107800
     21 C23          1.3850    -3.1640    -0.5420 cd         1 EKP      -0.139400
     22 C27          4.0170    -0.3340     1.5330 ca         1 EKP      -0.164300
     23 C29          5.0360     1.2820     0.0590 ca         1 EKP      -0.132500
     24 C30          6.3140     0.9910     0.5500 ca         1 EKP       0.026700
     25 C31          6.4090     0.0270     1.5460 ca         1 EKP      -0.132500
     26 C32          5.2780    -0.6250     2.0300 ca         1 EKP      -0.119500
     27 C33          7.5080     1.7430    -0.0140 c3         1 EKP      -0.159700
     28 C34          7.3710     3.2240     0.3430 c3         1 EKP      -0.052100
     29 C35          8.8380     1.2330     0.5440 c3         1 EKP      -0.052100
     30 C36          7.5060     1.5070    -1.5570 c          1 EKP       0.935600
     31 N11         -3.6570     0.3100    -1.1060 ns         1 EKP      -0.577900
     32 N21          2.0110    -1.6820     1.0320 na         1 EKP      -0.046400
     33 O15         -2.9060    -0.9830    -2.7900 o          1 EKP      -0.622100
     34 O37          7.7110     0.3330    -1.9230 o          1 EKP      -0.822800
     35 O38          7.2950     2.4870    -2.2970 o          1 EKP      -0.822800
     36 H1          -5.3040    -0.3250    -2.1910 h1         1 EKP       0.066700
     37 H2           0.4910     0.6930     1.5030 ha         1 EKP       0.135000
     38 H3          -1.0830    -2.5230    -1.9730 ha         1 EKP       0.148000
     39 H4           0.3440    -4.8220    -1.4160 hc         1 EKP       0.034033
     40 H5           1.4870    -4.0480    -2.4980 hc         1 EKP       0.034033
     41 H6           2.0670    -5.0930    -1.2110 hc         1 EKP       0.034033
     42 H7           3.0810    -1.7820     2.8100 h1         1 EKP       0.048700
     43 H8           2.1410    -0.3360     2.5810 h1         1 EKP       0.048700
     44 H10         -8.4590     1.9030     2.1460 ha         1 EKP       0.126000
     45 H11         -6.5160     3.3330     1.7210 ha         1 EKP       0.129000
     46 H12         -4.9000     2.7730    -0.0430 ha         1 EKP       0.137000
     47 H13         -7.1720    -0.7350    -0.9750 ha         1 EKP       0.133000
     48 H14         -9.1410    -1.2820     0.1620 hc         1 EKP       0.081700
     49 H15        -10.5590     1.1800     1.3780 hc         1 EKP       0.071700
     50 H16        -11.3410    -0.3530     0.7900 hc         1 EKP       0.071700
     51 H17         -9.9780    -1.6770     2.4580 hc         1 EKP       0.071700
     52 H18         -9.1980    -0.1360     3.0310 hc         1 EKP       0.071700
     53 H19         -4.4810     2.6150    -2.3760 hc         1 EKP       0.043700
     54 H20         -4.1660     1.3670    -3.5850 hc         1 EKP       0.043700
     55 H21         -5.8240     1.8560    -3.2360 hc         1 EKP       0.043700
     56 H22         -1.5520     1.1230     0.2600 ha         1 EKP       0.118000
     57 H26          4.9200     2.0260    -0.7200 ha         1 EKP       0.140500
     58 H27          7.3720    -0.2420     1.9610 ha         1 EKP       0.140500
     59 H28          5.3890    -1.3770     2.8030 ha         1 EKP       0.112000
     60 H29          7.3760     3.3560     1.4280 hc         1 EKP       0.017867
     61 H30          8.2020     3.8010    -0.0650 hc         1 EKP       0.017867
     62 H31          6.4480     3.6590    -0.0380 hc         1 EKP       0.017867
     63 H32          8.9830     0.1720     0.3490 hc         1 EKP       0.017867
     64 H33          9.6670     1.7710     0.0790 hc         1 EKP       0.017867
     65 H34          8.9130     1.3960     1.6210 hc         1 EKP       0.017867
     66 H35         -3.5290     0.5830    -0.1460 hn         1 EKP       0.317500
     67 C24          1.3210    -4.3380    -1.4580 c3         1 EKP      -0.011900
     68 C26          2.7950    -1.0390     2.0640 c3         1 EKP       0.105600
     69 C25          3.5500    -3.6360     0.7800 c3         1 EKP      -0.040900
     70 H9           2.9410     0.8870     0.1210 ha         1 EKP       0.112000
     71 H23          3.6070    -3.8130     1.8560 hc         1 EKP       0.052033
     72 H24          3.5540    -4.6060     0.2890 hc         1 EKP       0.052033
     73 H25          4.4640    -3.1160     0.4880 hc         1 EKP       0.052033
@<TRIPOS>BOND
     1     1    11 1   
     2     1    16 1   
     3     1    31 1   
     4     1    36 1   
     5     2    17 1   
     6     2    31 1   
     7     2    33 2   
     8     3    18 ar  
     9     3    19 ar  
    10     3    37 1   
    11     4    17 ar  
    12     4    20 ar  
    13     4    38 1   
    14     5    21 2   
    15     5    32 1   
    16     5    69 1   
    17     6    22 ar  
    18     6    23 ar  
    19     6    70 1   
    20     7     8 ar  
    21     7    12 ar  
    22     7    13 1   
    23     8     9 ar  
    24     8    44 1   
    25     9    10 ar  
    26     9    45 1   
    27    10    11 ar  
    28    10    46 1   
    29    11    12 ar  
    30    12    47 1   
    31    13    14 1   
    32    13    15 1   
    33    13    48 1   
    34    14    15 1   
    35    14    49 1   
    36    14    50 1   
    37    15    51 1   
    38    15    52 1   
    39    16    53 1   
    40    16    54 1   
    41    16    55 1   
    42    17    18 ar  
    43    18    56 1   
    44    19    20 ar  
    45    19    32 1   
    46    20    21 1   
    47    21    67 1   
    48    22    26 ar  
    49    22    68 1   
    50    23    24 ar  
    51    23    57 1   
    52    24    25 ar  
    53    24    27 1   
    54    25    26 ar  
    55    25    58 1   
    56    26    59 1   
    57    27    28 1   
    58    27    29 1   
    59    27    30 1   
    60    28    60 1   
    61    28    61 1   
    62    28    62 1   
    63    29    63 1   
    64    29    64 1   
    65    29    65 1   
    66    30    34 1   
    67    30    35 1   
    68    31    66 1   
    69    32    68 1   
    70    39    67 1   
    71    40    67 1   
    72    41    67 1   
    73    42    68 1   
    74    43    68 1   
    75    69    71 1   
    76    69    72 1   
    77    69    73 1   
@<TRIPOS>SUBSTRUCTURE
     1 EKP         1 TEMP              0 ****  ****    0 ROOT
