@<TRIPOS>MOLECULE
EKQ
   32    31     1     0     0
SMALL
bcc


@<TRIPOS>ATOM
      1 C10         -3.0580    -0.0680     0.4860 c3         1 EKQ       0.065500
      2 C15         -3.2680    -1.2150     1.5010 c          1 EKQ       0.910600
      3 O01          5.2540     1.1700     2.2430 o          1 EKQ      -0.890300
      4 O03          3.4650     2.1320     1.3370 o          1 EKQ      -0.890300
      5 C04          4.2330     0.0470     0.4270 c3         1 EKQ      -0.172400
      6 C05          3.0140     0.0010    -0.4930 c3         1 EKQ       0.065500
      7 N06          1.8110    -0.1530     0.3040 n7         1 EKQ      -0.781200
      8 C07          0.5860    -0.1100    -0.4680 c3         1 EKQ       0.159800
      9 C08         -0.6290    -0.0990     0.4480 c3         1 EKQ       0.159800
     10 N09         -1.8560    -0.1770    -0.3210 n7         1 EKQ      -0.781200
     11 C11         -4.2730    -0.0110    -0.4410 c3         1 EKQ      -0.172400
     12 C12         -4.2380     1.1840    -1.4050 c          1 EKQ       0.929100
     13 O13         -4.3740     0.9460    -2.6240 o          1 EKQ      -0.890300
     14 O14         -4.1020     2.3140    -0.8900 o          1 EKQ      -0.890300
     15 O16         -3.9010    -0.9360     2.5410 o          1 EKQ      -0.882800
     16 O17         -2.8330    -2.3410     1.1810 o          1 EKQ      -0.882800
     17 C18          3.2290    -1.1510    -1.4980 c          1 EKQ       0.910600
     18 O19          2.7900    -2.2800    -1.2040 o          1 EKQ      -0.882800
     19 O20          3.8860    -0.8600    -2.5220 o          1 EKQ      -0.882800
     20 H1          -3.0100     0.8800     1.0330 h1         1 EKQ       0.027200
     21 H3           5.1390     0.0780    -0.1890 hc         1 EKQ       0.010450
     22 H4           4.2890    -0.8920     0.9880 hc         1 EKQ       0.010450
     23 H5           2.9920     0.9380    -1.0740 h1         1 EKQ       0.027200
     24 H6           1.8020     0.6320     0.9470 hn         1 EKQ       0.344300
     25 H8           0.5300     0.7620    -1.1420 h1         1 EKQ       0.020950
     26 H9           0.5410    -0.9970    -1.1050 h1         1 EKQ       0.020950
     27 H10         -0.5230    -0.9100     1.1830 h1         1 EKQ       0.020950
     28 H11         -0.6400     0.8370     1.0180 h1         1 EKQ       0.020950
     29 H12         -1.8790    -1.0810    -0.7810 hn         1 EKQ       0.344300
     30 H14         -4.3430    -0.9520    -0.9960 hc         1 EKQ       0.010450
     31 H15         -5.1770     0.0580     0.1740 hc         1 EKQ       0.010450
     32 C02          4.3150     1.2200     1.4220 c          1 EKQ       0.929100
@<TRIPOS>BOND
     1     1     2 1   
     2     1    10 1   
     3     1    11 1   
     4     1    20 1   
     5     2    15 1   
     6     2    16 1   
     7     3    32 1   
     8     4    32 1   
     9     5     6 1   
    10     5    21 1   
    11     5    22 1   
    12     5    32 1   
    13     6     7 1   
    14     6    17 1   
    15     6    23 1   
    16     7     8 1   
    17     7    24 1   
    18     8     9 1   
    19     8    25 1   
    20     8    26 1   
    21     9    10 1   
    22     9    27 1   
    23     9    28 1   
    24    10    29 1   
    25    11    12 1   
    26    11    30 1   
    27    11    31 1   
    28    12    13 1   
    29    12    14 1   
    30    17    18 1   
    31    17    19 1   
@<TRIPOS>SUBSTRUCTURE
     1 EKQ         1 TEMP              0 ****  ****    0 ROOT
