@<TRIPOS>MOLECULE
EKQ
   32    31     1     0     0
SMALL
No Charge or Current Charge


@<TRIPOS>ATOM
      1 C10         -3.1520    -0.1830     0.4100 c3         1 EKQ       0.065500
      2 C15         -3.3890    -1.4760     1.3020 c          1 EKQ       0.700000
      3 O01          3.7330     2.0020     1.8980 o          1 EKQ      -0.785000
      4 O03          4.9730     2.4090     0.1900 o          1 EKQ      -0.785000
      5 C04          4.3510     0.1430     0.5450 c3         1 EKQ      -0.172400
      6 C05          3.1720    -0.1650    -0.4210 c3         1 EKQ       0.065500
      7 N06          1.8870    -0.1910     0.3580 n7         1 EKQ      -0.836400
      8 C07          0.6480    -0.1990    -0.4540 c3         1 EKQ       0.159800
      9 C08         -0.6280    -0.2020     0.4390 c3         1 EKQ       0.159800
     10 N09         -1.8690    -0.2000    -0.3720 n7         1 EKQ      -0.836400
     11 C11         -4.3560     0.0620    -0.5450 c3         1 EKQ      -0.172400
     12 C12         -4.5250     1.5640    -0.8510 c          1 EKQ       0.718500
     13 O13         -4.0480     2.0170    -1.8810 o          1 EKQ      -0.785000
     14 O14         -5.1580     2.2460    -0.0570 o          1 EKQ      -0.785000
     15 O16         -3.5040    -1.3410     2.5140 o          1 EKQ      -0.777500
     16 O17         -3.3890    -2.5770     0.7610 o          1 EKQ      -0.777500
     17 C18          3.4480    -1.4550    -1.3120 c          1 EKQ       0.700000
     18 O19          3.8170    -2.4940    -0.7740 o          1 EKQ      -0.777500
     19 O20          3.2980    -1.3670    -2.5250 o          1 EKQ      -0.777500
     20 H1          -3.1240     0.6620     1.1120 h1         1 EKQ       0.027200
     21 H3           5.2610    -0.0980    -0.0180 hc         1 EKQ       0.010450
     22 H4           4.2100    -0.4870     1.4330 hc         1 EKQ       0.010450
     23 H5           3.1300     0.6730    -1.1310 h1         1 EKQ       0.027200
     24 H6           1.8720     0.6470     0.9520 hn         1 EKQ       0.399500
     25 H8           0.6220     0.6860    -1.1040 h1         1 EKQ       0.020950
     26 H9           0.6270    -1.0870    -1.1010 h1         1 EKQ       0.020950
     27 H10         -0.6030    -1.0900     1.0870 h1         1 EKQ       0.020950
     28 H11         -0.6060     0.6830     1.0890 h1         1 EKQ       0.020950
     29 H12         -1.8740    -1.0560    -0.9400 hn         1 EKQ       0.399500
     30 H14         -4.1800    -0.5190    -1.4590 hc         1 EKQ       0.010450
     31 H15         -5.2320    -0.2810     0.0200 hc         1 EKQ       0.010450
     32 C02          4.3610     1.6380     0.9140 c          1 EKQ       0.718500
@<TRIPOS>BOND
     1     1     2 1   
     2     1    10 1   
     3     1    11 1   
     4     1    20 1   
     5     2    15 1   
     6     2    16 1   
     7     3    32 1   
     8     4    32 1   
     9     5     6 1   
    10     5    21 1   
    11     5    22 1   
    12     5    32 1   
    13     6     7 1   
    14     6    17 1   
    15     6    23 1   
    16     7     8 1   
    17     7    24 1   
    18     8     9 1   
    19     8    25 1   
    20     8    26 1   
    21     9    10 1   
    22     9    27 1   
    23     9    28 1   
    24    10    29 1   
    25    11    12 1   
    26    11    30 1   
    27    11    31 1   
    28    12    13 1   
    29    12    14 1   
    30    17    18 1   
    31    17    19 1   
@<TRIPOS>SUBSTRUCTURE
     1 EKQ         1 TEMP              0 ****  ****    0 ROOT
