@<TRIPOS>MOLECULE
EKR
   54    58     1     0     0
SMALL
No Charge or Current Charge


@<TRIPOS>ATOM
      1 C1          34.0050   -10.2820   -30.7480 cc         1 EKR       0.393900
      2 C2          34.4110    -9.9280   -32.0370 cd         1 EKR      -0.105000
      3 C3          34.5130   -11.0440   -32.9330 cd         1 EKR      -0.046000
      4 C11         34.5760    -8.5020   -32.4390 ca         1 EKR      -0.017000
      5 C12         33.9750    -7.4630   -31.6880 ca         1 EKR      -0.094000
      6 C13         34.1300    -6.1160   -32.0580 ca         1 EKR      -0.101000
      7 C14         34.8970    -5.7680   -33.1820 ca         1 EKR      -0.080300
      8 C15         35.5090    -6.7880   -33.9310 ca         1 EKR      -0.101000
      9 C16         35.3520    -8.1350   -33.5630 ca         1 EKR      -0.094000
     10 C17         35.0630    -4.3030   -33.5790 c3         1 EKR       0.210100
     11 C19         35.8690    -2.0710   -32.9240 c3         1 EKR       0.150100
     12 C20         37.2780    -4.0410   -32.5020 c3         1 EKR       0.150100
     13 C21         32.7130   -14.1970   -29.6750 c3         1 EKR       0.300100
     14 C22         31.2420   -13.9740   -30.0050 ca         1 EKR      -0.141300
     15 C23         30.6410   -14.6090   -31.1170 ca         1 EKR      -0.070000
     16 C24         29.2770   -14.3970   -31.4130 ca         1 EKR      -0.146000
     17 C25         28.4940   -13.5540   -30.6000 ca         1 EKR      -0.047000
     18 C26         29.1040   -12.9340   -29.5000 ca         1 EKR      -0.170300
     19 C27         30.4360   -13.1350   -29.2150 ca         1 EKR       0.157100
     20 C28         28.4700   -12.0330   -28.4890 c5         1 EKR      -0.054100
     21 C29         29.7830   -11.5310   -27.7820 c5         1 EKR       0.148600
     22 N4          34.3650   -12.3020   -32.4870 na         1 EKR      -0.236300
     23 C5          33.8370   -12.5620   -31.2370 cd         1 EKR       0.814400
     24 N6          33.7140   -11.5860   -30.3490 nc         1 EKR      -0.769000
     25 N7          34.6830   -11.0860   -34.2430 nc         1 EKR      -0.105000
     26 N8          34.5500   -12.4230   -34.6310 nc         1 EKR      -0.345700
     27 C9          34.2940   -13.1510   -33.5470 cd         1 EKR       0.312700
     28 N10         33.5570   -13.8220   -30.8200 nu         1 EKR      -0.940100
     29 N18         35.8960    -3.5210   -32.6310 n3         1 EKR      -0.714600
     30 O30         30.8600   -12.4780   -28.0920 os         1 EKR      -0.329100
     31 H1          33.8780    -9.5590   -29.9540 h4         1 EKR       0.031100
     32 H2          33.3560    -7.6820   -30.8230 ha         1 EKR       0.119500
     33 H3          33.6530    -5.3370   -31.4680 ha         1 EKR       0.118000
     34 H4          36.1180    -6.5370   -34.7970 ha         1 EKR       0.118000
     35 H5          35.8750    -8.8840   -34.1490 ha         1 EKR       0.119500
     36 H6          35.4940    -4.2490   -34.5880 h1         1 EKR       0.038200
     37 H7          34.0600    -3.8590   -33.6410 h1         1 EKR       0.038200
     38 H8          36.4270    -1.5100   -32.1620 h1         1 EKR       0.030867
     39 H9          36.3190    -1.8600   -33.9040 h1         1 EKR       0.030867
     40 H10         34.8370    -1.6950   -32.9310 h1         1 EKR       0.030867
     41 H11         37.8440    -3.4560   -31.7650 h1         1 EKR       0.030867
     42 H12         37.2770    -5.0860   -32.1650 h1         1 EKR       0.030867
     43 H13         37.8080    -3.9880   -33.4620 h1         1 EKR       0.030867
     44 H14         32.8610   -15.2580   -29.4290 h1         1 EKR       0.070700
     45 H15         32.9960   -13.6220   -28.7820 h1         1 EKR       0.070700
     46 H16         31.2300   -15.2680   -31.7520 ha         1 EKR       0.106000
     47 H17         28.8260   -14.8910   -32.2710 ha         1 EKR       0.118000
     48 H18         27.4400   -13.3940   -30.8180 ha         1 EKR       0.118000
     49 H19         27.8960   -11.2120   -28.9330 hc         1 EKR       0.063700
     50 H20         27.8170   -12.5780   -27.7990 hc         1 EKR       0.063700
     51 H21         29.6690   -11.4360   -26.6940 h1         1 EKR       0.059700
     52 H22         30.0750   -10.5500   -28.1790 h1         1 EKR       0.059700
     53 H23         34.0800   -14.2110   -33.4860 h5         1 EKR       0.069800
     54 H24         33.8610   -14.5570   -31.4470 hn         1 EKR       0.502000
@<TRIPOS>BOND
     1     1     2 2   
     2     1    24 1   
     3     1    31 1   
     4     2     3 1   
     5     2     4 1   
     6     3    22 1   
     7     3    25 2   
     8     4     5 ar  
     9     4     9 ar  
    10     5     6 ar  
    11     5    32 1   
    12     6     7 ar  
    13     6    33 1   
    14     7     8 ar  
    15     7    10 1   
    16     8     9 ar  
    17     8    34 1   
    18     9    35 1   
    19    10    29 1   
    20    10    36 1   
    21    10    37 1   
    22    11    29 1   
    23    11    38 1   
    24    11    39 1   
    25    11    40 1   
    26    12    29 1   
    27    12    41 1   
    28    12    42 1   
    29    12    43 1   
    30    13    14 1   
    31    13    28 1   
    32    13    44 1   
    33    13    45 1   
    34    14    15 ar  
    35    14    19 ar  
    36    15    16 ar  
    37    15    46 1   
    38    16    17 ar  
    39    16    47 1   
    40    17    18 ar  
    41    17    48 1   
    42    18    19 ar  
    43    18    20 1   
    44    19    30 1   
    45    20    21 1   
    46    20    49 1   
    47    20    50 1   
    48    21    30 1   
    49    21    51 1   
    50    21    52 1   
    51    22    23 1   
    52    22    27 1   
    53    23    24 2   
    54    23    28 1   
    55    25    26 1   
    56    26    27 2   
    57    27    53 1   
    58    28    54 1   
@<TRIPOS>SUBSTRUCTURE
     1 EKR         1 TEMP              0 ****  ****    0 ROOT
