@<TRIPOS>MOLECULE
EKR
   54    58     1     0     0
SMALL
bcc


@<TRIPOS>ATOM
      1 C1          33.7090   -10.4170   -31.2250 cc         1 EKR       0.459200
      2 C2          34.3040   -10.0940   -32.4110 cd         1 EKR      -0.170300
      3 C3          34.5940   -11.2030   -33.2520 cd         1 EKR       0.004700
      4 C11         34.6190    -8.7090   -32.7870 ca         1 EKR      -0.017000
      5 C12         33.7280    -7.6770   -32.4780 ca         1 EKR      -0.112000
      6 C13         34.0320    -6.3600   -32.7730 ca         1 EKR      -0.119000
      7 C14         35.2330    -6.0260   -33.3960 ca         1 EKR      -0.080300
      8 C15         36.1140    -7.0520   -33.7150 ca         1 EKR      -0.119000
      9 C16         35.8150    -8.3750   -33.4210 ca         1 EKR      -0.112000
     10 C17         35.5480    -4.5920   -33.7320 c3         1 EKR       0.210100
     11 C19         35.3620    -2.3150   -33.0320 c3         1 EKR       0.150100
     12 C20         36.2630    -3.9420   -31.5350 c3         1 EKR       0.150100
     13 C21         32.5970   -14.2010   -30.0250 c3         1 EKR       0.300100
     14 C22         31.1650   -13.7330   -30.0810 ca         1 EKR      -0.141300
     15 C23         30.3360   -14.0590   -31.1580 ca         1 EKR      -0.088000
     16 C24         29.0210   -13.6230   -31.2300 ca         1 EKR      -0.164000
     17 C25         28.4830   -12.8390   -30.2090 ca         1 EKR      -0.065000
     18 C26         29.2840   -12.5110   -29.1350 ca         1 EKR      -0.170300
     19 C27         30.5990   -12.9600   -29.0810 ca         1 EKR       0.157100
     20 C28         29.0090   -11.7340   -27.8800 c5         1 EKR      -0.054100
     21 C29         30.4270   -11.5700   -27.3140 c5         1 EKR       0.125400
     22 N4          34.2530   -12.4660   -32.8140 na         1 EKR      -0.287000
     23 C5          33.6360   -12.6750   -31.5980 cd         1 EKR       0.814400
     24 N6          33.3760   -11.6650   -30.8240 nc         1 EKR      -0.769000
     25 N7          35.1390   -11.2920   -34.4410 nc         1 EKR      -0.105000
     26 N8          35.1620   -12.6010   -34.7830 nc         1 EKR      -0.345700
     27 C9          34.6390   -13.3010   -33.8280 cd         1 EKR       0.312700
     28 N10         33.3330   -13.9250   -31.2430 nu         1 EKR      -0.884900
     29 N18         35.3270    -3.6990   -32.6120 n3         1 EKR      -0.714600
     30 O30         31.2440   -12.5610   -27.9640 os         1 EKR      -0.305900
     31 H1          33.4770    -9.6350   -30.5110 h4         1 EKR       0.031100
     32 H2          32.7780    -7.9090   -32.0130 ha         1 EKR       0.137500
     33 H3          33.3260    -5.5800   -32.5180 ha         1 EKR       0.136000
     34 H4          37.0570    -6.8170   -34.1950 ha         1 EKR       0.136000
     35 H5          36.5310    -9.1470   -33.6700 ha         1 EKR       0.137500
     36 H6          36.5800    -4.5270   -34.1180 h1         1 EKR       0.038200
     37 H7          34.8970    -4.2710   -34.5520 h1         1 EKR       0.038200
     38 H8          35.1350    -1.6640   -32.1870 h1         1 EKR       0.030867
     39 H9          36.3390    -2.0070   -33.4380 h1         1 EKR       0.030867
     40 H10         34.6100    -2.1360   -33.8010 h1         1 EKR       0.030867
     41 H11         36.0390    -3.2860   -30.6940 h1         1 EKR       0.030867
     42 H12         36.1840    -4.9710   -31.1830 h1         1 EKR       0.030867
     43 H13         37.3100    -3.7670   -31.8290 h1         1 EKR       0.030867
     44 H14         32.6380   -15.2810   -29.8830 h1         1 EKR       0.070700
     45 H15         33.1180   -13.7530   -29.1800 h1         1 EKR       0.070700
     46 H16         30.7370   -14.6600   -31.9660 ha         1 EKR       0.124000
     47 H17         28.4130   -13.8910   -32.0830 ha         1 EKR       0.136000
     48 H18         27.4570   -12.4960   -30.2610 ha         1 EKR       0.136000
     49 H19         28.5330   -10.7710   -28.0610 hc         1 EKR       0.063700
     50 H20         28.3620   -12.2980   -27.2040 hc         1 EKR       0.063700
     51 H21         30.4900   -11.7280   -26.2390 h1         1 EKR       0.059700
     52 H22         30.8320   -10.5820   -27.5470 h1         1 EKR       0.059700
     53 H23         34.5260   -14.3730   -33.8210 h5         1 EKR       0.069800
     54 H24         33.4710   -14.6870   -31.8860 hn         1 EKR       0.446800
@<TRIPOS>BOND
     1     1     2 2   
     2     1    24 1   
     3     1    31 1   
     4     2     3 1   
     5     2     4 1   
     6     3    22 1   
     7     3    25 2   
     8     4     5 ar  
     9     4     9 ar  
    10     5     6 ar  
    11     5    32 1   
    12     6     7 ar  
    13     6    33 1   
    14     7     8 ar  
    15     7    10 1   
    16     8     9 ar  
    17     8    34 1   
    18     9    35 1   
    19    10    29 1   
    20    10    36 1   
    21    10    37 1   
    22    11    29 1   
    23    11    38 1   
    24    11    39 1   
    25    11    40 1   
    26    12    29 1   
    27    12    41 1   
    28    12    42 1   
    29    12    43 1   
    30    13    14 1   
    31    13    28 1   
    32    13    44 1   
    33    13    45 1   
    34    14    15 ar  
    35    14    19 ar  
    36    15    16 ar  
    37    15    46 1   
    38    16    17 ar  
    39    16    47 1   
    40    17    18 ar  
    41    17    48 1   
    42    18    19 ar  
    43    18    20 1   
    44    19    30 1   
    45    20    21 1   
    46    20    49 1   
    47    20    50 1   
    48    21    30 1   
    49    21    51 1   
    50    21    52 1   
    51    22    23 1   
    52    22    27 1   
    53    23    24 2   
    54    23    28 1   
    55    25    26 1   
    56    26    27 2   
    57    27    53 1   
    58    28    54 1   
@<TRIPOS>SUBSTRUCTURE
     1 EKR         1 TEMP              0 ****  ****    0 ROOT
