@<TRIPOS>MOLECULE
EKS
   79    82     1     0     0
SMALL
abcg2


@<TRIPOS>ATOM
      1 C10          1.4290     4.8050     2.2430 c3         1 EKS      -0.010900
      2 C13          3.6730     0.3910    -0.4750 ca         1 EKS      -0.101300
      3 C15          3.4000    -1.3970     1.0950 ca         1 EKS      -0.081000
      4 C17          5.4830    -1.1820    -0.0860 ca         1 EKS       0.213100
      5 C20          7.4600    -2.5710     0.2020 c3         1 EKS       0.036000
      6 C21          6.7080    -3.9250     0.0330 c          1 EKS       0.706000
      7 C24         -3.3170     2.9480    -0.1210 c          1 EKS       0.621700
      8 C28         -6.1370     0.6160    -0.3040 ca         1 EKS      -0.103300
      9 C01         -1.8510     2.7290    -0.2780 ca         1 EKS      -0.195600
     10 C02         -1.3230     1.8510    -1.2450 ca         1 EKS      -0.084000
     11 C03          0.0380     1.6710    -1.3930 ca         1 EKS      -0.127000
     12 C04          0.8830     2.3840    -0.5460 ca         1 EKS      -0.019200
     13 C05          0.3790     3.2680     0.4320 ca         1 EKS      -0.110800
     14 C06         -0.9970     3.4460     0.5480 ca         1 EKS      -0.003000
     15 C08          2.6180     3.2640     0.5600 cc         1 EKS      -0.031300
     16 C09          1.5030     3.8170     1.1280 cd         1 EKS      -0.143400
     17 C11          4.0520     3.4740     0.8870 c3         1 EKS      -0.040900
     18 C12          3.1480     1.5890    -1.2300 c3         1 EKS       0.123900
     19 C14          2.8820    -0.2860     0.4490 ca         1 EKS      -0.165000
     20 C16          4.6870    -1.8540     0.8420 ca         1 EKS      -0.164000
     21 C18          4.9600    -0.0560    -0.7300 ca         1 EKS      -0.174000
     22 C27         -5.5700     2.0080    -0.4480 c3         1 EKS       0.166000
     23 C29         -5.9980    -0.3320    -1.3170 ca         1 EKS      -0.099000
     24 C30         -6.5250    -1.6040    -1.1750 ca         1 EKS      -0.110500
     25 C31         -7.2220    -1.9860    -0.0240 ca         1 EKS      -0.060300
     26 C32         -7.3570    -1.0330     0.9800 ca         1 EKS      -0.110500
     27 C33         -6.8210     0.2430     0.8440 ca         1 EKS      -0.099000
     28 C34         -6.1270     2.7320    -1.6710 c3         1 EKS      -0.101100
     29 C35         -7.7930    -3.3960     0.0860 c3         1 EKS       0.000300
     30 C36         -6.6400    -4.4090     0.0840 c3         1 EKS      -0.082100
     31 C37         -8.6010    -3.5930     1.3690 c3         1 EKS      -0.082100
     32 C38         -8.7130    -3.6700    -1.1110 c3         1 EKS      -0.082100
     33 C39          7.7970    -2.2120     1.6430 c3         1 EKS      -0.076100
     34 C40          8.7510    -2.6730    -0.6080 c3         1 EKS      -0.076100
     35 N07          2.2440     2.4050    -0.4590 na         1 EKS      -0.074700
     36 N26         -4.1160     1.9310    -0.4930 ns         1 EKS      -0.509900
     37 O19          6.7420    -1.4980    -0.4250 os         1 EKS      -0.347100
     38 O22          6.8340    -4.7460     0.9610 o          1 EKS      -0.708000
     39 O23          6.0950    -4.0790    -1.0360 o          1 EKS      -0.708000
     40 O25         -3.7630     3.9950     0.3360 o          1 EKS      -0.627100
     41 H1           0.9770     5.7450     1.9180 hc         1 EKS       0.032700
     42 H2           0.8220     4.4290     3.0700 hc         1 EKS       0.032700
     43 H3           2.4130     5.0390     2.6450 hc         1 EKS       0.032700
     44 H4           2.7920    -1.9260     1.8180 ha         1 EKS       0.100000
     45 H5          -1.9800     1.3200    -1.9210 ha         1 EKS       0.102000
     46 H6           0.4200     0.9990    -2.1500 ha         1 EKS       0.122000
     47 H7          -1.4030     4.1280     1.2860 ha         1 EKS       0.129000
     48 H8           4.6180     3.8310     0.0240 hc         1 EKS       0.052033
     49 H9           4.1560     4.2170     1.6760 hc         1 EKS       0.052033
     50 H10          4.5310     2.5560     1.2320 hc         1 EKS       0.052033
     51 H11          3.9790     2.2010    -1.5850 h1         1 EKS       0.057700
     52 H12          2.6190     1.2600    -2.1260 h1         1 EKS       0.057700
     53 H13          1.8760     0.0460     0.6700 ha         1 EKS       0.105000
     54 H14          5.0390    -2.7210     1.3810 ha         1 EKS       0.153000
     55 H15          5.5870     0.4770    -1.4370 ha         1 EKS       0.108000
     56 H16         -5.8440     2.5770     0.4430 h1         1 EKS       0.071700
     57 H17         -5.4810    -0.0790    -2.2360 ha         1 EKS       0.113500
     58 H18         -6.3960    -2.3080    -1.9880 ha         1 EKS       0.111500
     59 H19         -7.8860    -1.2690     1.8940 ha         1 EKS       0.111500
     60 H20         -6.9460     0.9580     1.6490 ha         1 EKS       0.113500
     61 H21         -5.8550     2.2180    -2.5930 hc         1 EKS       0.041700
     62 H22         -7.2150     2.7840    -1.6180 hc         1 EKS       0.041700
     63 H23         -5.7420     3.7500    -1.7230 hc         1 EKS       0.041700
     64 H24         -5.9780    -4.2550     0.9380 hc         1 EKS       0.034922
     65 H25         -7.0310    -5.4270     0.1440 hc         1 EKS       0.034922
     66 H26         -6.0350    -4.3420    -0.8220 hc         1 EKS       0.034922
     67 H27         -9.4460    -2.9040     1.4290 hc         1 EKS       0.034922
     68 H28         -9.0020    -4.6070     1.3980 hc         1 EKS       0.034922
     69 H29         -7.9900    -3.4600     2.2640 hc         1 EKS       0.034922
     70 H30         -8.1770    -3.6270    -2.0600 hc         1 EKS       0.034922
     71 H31         -9.1510    -4.6670    -1.0330 hc         1 EKS       0.034922
     72 H32         -9.5300    -2.9480    -1.1540 hc         1 EKS       0.034922
     73 H33          8.4710    -2.9550     2.0660 hc         1 EKS       0.028367
     74 H34          8.3050    -1.2460     1.6810 hc         1 EKS       0.028367
     75 H35          6.9250    -2.1590     2.2930 hc         1 EKS       0.028367
     76 H36          8.5430    -2.8730    -1.6590 hc         1 EKS       0.028367
     77 H37          9.3340    -1.7520    -0.5380 hc         1 EKS       0.028367
     78 H38          9.3670    -3.4860    -0.2240 hc         1 EKS       0.028367
     79 H39         -3.7020     1.0500    -0.7510 hn         1 EKS       0.320500
@<TRIPOS>BOND
     1     1    16 1   
     2     1    41 1   
     3     1    42 1   
     4     1    43 1   
     5     2    18 1   
     6     2    19 ar  
     7     2    21 ar  
     8     3    19 ar  
     9     3    20 ar  
    10     3    44 1   
    11     4    20 ar  
    12     4    21 ar  
    13     4    37 1   
    14     5     6 1   
    15     5    33 1   
    16     5    34 1   
    17     5    37 1   
    18     6    38 1   
    19     6    39 1   
    20     7     9 1   
    21     7    36 1   
    22     7    40 2   
    23     8    22 1   
    24     8    23 ar  
    25     8    27 ar  
    26     9    10 ar  
    27     9    14 ar  
    28    10    11 ar  
    29    10    45 1   
    30    11    12 ar  
    31    11    46 1   
    32    12    13 ar  
    33    12    35 1   
    34    13    14 ar  
    35    13    16 1   
    36    14    47 1   
    37    15    16 2   
    38    15    17 1   
    39    15    35 1   
    40    17    48 1   
    41    17    49 1   
    42    17    50 1   
    43    18    35 1   
    44    18    51 1   
    45    18    52 1   
    46    19    53 1   
    47    20    54 1   
    48    21    55 1   
    49    22    28 1   
    50    22    36 1   
    51    22    56 1   
    52    23    24 ar  
    53    23    57 1   
    54    24    25 ar  
    55    24    58 1   
    56    25    26 ar  
    57    25    29 1   
    58    26    27 ar  
    59    26    59 1   
    60    27    60 1   
    61    28    61 1   
    62    28    62 1   
    63    28    63 1   
    64    29    30 1   
    65    29    31 1   
    66    29    32 1   
    67    30    64 1   
    68    30    65 1   
    69    30    66 1   
    70    31    67 1   
    71    31    68 1   
    72    31    69 1   
    73    32    70 1   
    74    32    71 1   
    75    32    72 1   
    76    33    73 1   
    77    33    74 1   
    78    33    75 1   
    79    34    76 1   
    80    34    77 1   
    81    34    78 1   
    82    36    79 1   
@<TRIPOS>SUBSTRUCTURE
     1 EKS         1 TEMP              0 ****  ****    0 ROOT
