@<TRIPOS>MOLECULE
EKS
   79    82     1     0     0
SMALL
No Charge or Current Charge


@<TRIPOS>ATOM
      1 C10          1.7070     5.2750     1.3860 c3         1 EKS      -0.010900
      2 C13          3.6190     0.0910    -0.4960 ca         1 EKS      -0.101300
      3 C15          3.5220    -1.5000     1.3510 ca         1 EKS      -0.081000
      4 C17          5.5470    -1.3420    -0.0030 ca         1 EKS       0.213100
      5 C20          7.7420    -2.5340     0.4320 c3         1 EKS       0.036000
      6 C21          7.2410    -4.0220     0.6060 c          1 EKS       0.706000
      7 C24         -3.3220     2.8560     0.4490 c          1 EKS       0.621700
      8 C28         -6.2850     0.6060     0.0410 ca         1 EKS      -0.103300
      9 C01         -1.8690     2.5940     0.1200 ca         1 EKS      -0.195600
     10 C02         -1.4520     1.4530    -0.6290 ca         1 EKS      -0.084000
     11 C03         -0.0880     1.2350    -0.9200 ca         1 EKS      -0.127000
     12 C04          0.8490     2.1700    -0.4580 ca         1 EKS      -0.019200
     13 C05          0.4570     3.2620     0.2640 ca         1 EKS      -0.110800
     14 C06         -0.8870     3.5110     0.5740 ca         1 EKS      -0.003000
     15 C08          2.7660     3.3250     0.0690 cc         1 EKS      -0.031300
     16 C09          1.6620     3.9930     0.5920 cd         1 EKS      -0.143400
     17 C11          4.2320     3.6680     0.1460 c3         1 EKS      -0.040900
     18 C12          2.9810     1.1820    -1.3570 c3         1 EKS       0.123900
     19 C14          2.9190    -0.4970     0.5750 ca         1 EKS      -0.165000
     20 C16          4.8300    -1.9240     1.0670 ca         1 EKS      -0.164000
     21 C18          4.9290    -0.3450    -0.7780 ca         1 EKS      -0.174000
     22 C27         -5.6750     2.0000     0.1820 c3         1 EKS       0.166000
     23 C29         -6.2680    -0.0730    -1.1920 ca         1 EKS      -0.099000
     24 C30         -6.8250    -1.3570    -1.3070 ca         1 EKS      -0.110500
     25 C31         -7.4140    -2.0050    -0.1960 ca         1 EKS      -0.060300
     26 C32         -7.4210    -1.3130     1.0410 ca         1 EKS      -0.110500
     27 C33         -6.8630    -0.0280     1.1550 ca         1 EKS      -0.099000
     28 C34         -6.3220     3.0210    -0.7770 c3         1 EKS      -0.101100
     29 C35         -8.0180    -3.4250    -0.3680 c3         1 EKS       0.000300
     30 C36         -6.9070    -4.4010    -0.8400 c3         1 EKS      -0.082100
     31 C37         -8.6270    -3.9920     0.9450 c3         1 EKS      -0.082100
     32 C38         -9.1470    -3.3760    -1.4340 c3         1 EKS      -0.082100
     33 C39          8.0280    -1.8060     1.7800 c3         1 EKS      -0.076100
     34 C40          9.0440    -2.5690    -0.4090 c3         1 EKS      -0.076100
     35 N07          2.2330     2.1990    -0.5900 na         1 EKS      -0.074700
     36 N26         -4.2290     1.9300    -0.0120 ns         1 EKS      -0.509900
     37 O19          6.8420    -1.6960    -0.3550 os         1 EKS      -0.347100
     38 O22          7.6610    -4.6700     1.5570 o          1 EKS      -0.708000
     39 O23          6.3900    -4.4610    -0.1580 o          1 EKS      -0.708000
     40 O25         -3.6780     3.8330     1.0930 o          1 EKS      -0.627100
     41 H1           2.5130     5.9320     1.0360 hc         1 EKS       0.032700
     42 H2           0.7700     5.8360     1.2960 hc         1 EKS       0.032700
     43 H3           1.8760     5.0700     2.4490 hc         1 EKS       0.032700
     44 H4           2.9720    -1.9520     2.1740 ha         1 EKS       0.100000
     45 H5          -2.1710     0.7240    -0.9920 ha         1 EKS       0.102000
     46 H6           0.2160     0.3570    -1.4840 ha         1 EKS       0.122000
     47 H7          -1.1620     4.3890     1.1530 ha         1 EKS       0.129000
     48 H8           4.5630     4.1620    -0.7740 hc         1 EKS       0.052033
     49 H9           4.4390     4.3410     0.9860 hc         1 EKS       0.052033
     50 H10          4.8410     2.7680     0.2870 hc         1 EKS       0.052033
     51 H11          3.7650     1.7010    -1.9220 h1         1 EKS       0.057700
     52 H12          2.3190     0.7170    -2.0950 h1         1 EKS       0.057700
     53 H13          1.9050    -0.1840     0.8090 ha         1 EKS       0.105000
     54 H14          5.2610    -2.7080     1.6780 ha         1 EKS       0.153000
     55 H15          5.4820     0.0960    -1.6030 ha         1 EKS       0.108000
     56 H16         -5.8580     2.3500     1.2070 h1         1 EKS       0.071700
     57 H17         -5.8200     0.3910    -2.0670 ha         1 EKS       0.113500
     58 H18         -6.7930    -1.8480    -2.2750 ha         1 EKS       0.111500
     59 H19         -7.8540    -1.7510     1.9340 ha         1 EKS       0.111500
     60 H20         -6.8820     0.4760     2.1190 ha         1 EKS       0.113500
     61 H21         -6.1190     2.7670    -1.8240 hc         1 EKS       0.041700
     62 H22         -7.4090     3.0440    -0.6320 hc         1 EKS       0.041700
     63 H23         -5.9350     4.0290    -0.5900 hc         1 EKS       0.041700
     64 H24         -6.0800    -4.4220    -0.1190 hc         1 EKS       0.034922
     65 H25         -7.2960    -5.4210    -0.9390 hc         1 EKS       0.034922
     66 H26         -6.4970    -4.1080    -1.8140 hc         1 EKS       0.034922
     67 H27         -9.4390    -3.3540     1.3130 hc         1 EKS       0.034922
     68 H28         -9.0430    -4.9940     0.7820 hc         1 EKS       0.034922
     69 H29         -7.8650    -4.0770     1.7300 hc         1 EKS       0.034922
     70 H30         -8.7650    -3.0710    -2.4150 hc         1 EKS       0.034922
     71 H31         -9.6160    -4.3600    -1.5540 hc         1 EKS       0.034922
     72 H32         -9.9260    -2.6620    -1.1390 hc         1 EKS       0.034922
     73 H33          8.8890    -2.2570     2.2880 hc         1 EKS       0.028367
     74 H34          8.2600    -0.7480     1.6100 hc         1 EKS       0.028367
     75 H35          7.1790    -1.8620     2.4680 hc         1 EKS       0.028367
     76 H36          8.8630    -3.0380    -1.3840 hc         1 EKS       0.028367
     77 H37          9.4300    -1.5570    -0.5810 hc         1 EKS       0.028367
     78 H38          9.8220    -3.1480     0.1040 hc         1 EKS       0.028367
     79 H39         -3.8560     1.1410    -0.5190 hn         1 EKS       0.320500
@<TRIPOS>BOND
     1     1    16 1   
     2     1    41 1   
     3     1    42 1   
     4     1    43 1   
     5     2    18 1   
     6     2    19 ar  
     7     2    21 ar  
     8     3    19 ar  
     9     3    20 ar  
    10     3    44 1   
    11     4    20 ar  
    12     4    21 ar  
    13     4    37 1   
    14     5     6 1   
    15     5    33 1   
    16     5    34 1   
    17     5    37 1   
    18     6    38 1   
    19     6    39 1   
    20     7     9 1   
    21     7    36 1   
    22     7    40 2   
    23     8    22 1   
    24     8    23 ar  
    25     8    27 ar  
    26     9    10 ar  
    27     9    14 ar  
    28    10    11 ar  
    29    10    45 1   
    30    11    12 ar  
    31    11    46 1   
    32    12    13 ar  
    33    12    35 1   
    34    13    14 ar  
    35    13    16 1   
    36    14    47 1   
    37    15    16 2   
    38    15    17 1   
    39    15    35 1   
    40    17    48 1   
    41    17    49 1   
    42    17    50 1   
    43    18    35 1   
    44    18    51 1   
    45    18    52 1   
    46    19    53 1   
    47    20    54 1   
    48    21    55 1   
    49    22    28 1   
    50    22    36 1   
    51    22    56 1   
    52    23    24 ar  
    53    23    57 1   
    54    24    25 ar  
    55    24    58 1   
    56    25    26 ar  
    57    25    29 1   
    58    26    27 ar  
    59    26    59 1   
    60    27    60 1   
    61    28    61 1   
    62    28    62 1   
    63    28    63 1   
    64    29    30 1   
    65    29    31 1   
    66    29    32 1   
    67    30    64 1   
    68    30    65 1   
    69    30    66 1   
    70    31    67 1   
    71    31    68 1   
    72    31    69 1   
    73    32    70 1   
    74    32    71 1   
    75    32    72 1   
    76    33    73 1   
    77    33    74 1   
    78    33    75 1   
    79    34    76 1   
    80    34    77 1   
    81    34    78 1   
    82    36    79 1   
@<TRIPOS>SUBSTRUCTURE
     1 EKS         1 TEMP              0 ****  ****    0 ROOT
