@<TRIPOS>MOLECULE
EKT
   54    56     1     0     0
SMALL
No Charge or Current Charge


@<TRIPOS>ATOM
      1 C2           0.5780    -0.3780    -0.5160 ca         1 EKT       0.402900
      2 C11         -3.4180     4.7340     1.3970 c3         1 EKT      -0.087600
      3 C12         -2.3900     4.3670    -0.9020 c3         1 EKT      -0.087600
      4 C13         -4.0270    -0.9550     0.4060 c6         1 EKT       0.181200
      5 C15         -3.9640    -2.4540    -0.0900 c          1 EKT       0.565000
      6 C16         -3.7400    -0.9880     1.9390 c3         1 EKT      -0.102100
      7 C18          3.6780    -0.6340     0.1030 ca         1 EKT      -0.184000
      8 C19          5.0790    -0.6910     0.1180 ca         1 EKT       0.162000
      9 C20          5.8480     0.3090    -0.5110 ca         1 EKT       0.029100
     10 C21          5.1780     1.3740    -1.1490 ca         1 EKT       0.162000
     11 C22          3.7760     1.4300    -1.1610 ca         1 EKT      -0.184000
     12 C23          3.0190     0.4220    -0.5480 ca         1 EKT       0.345000
     13 C29         -5.4820    -0.4060     0.2140 c3         1 EKT      -0.102100
     14 N1           0.8500    -1.6930    -0.5640 nb         1 EKT      -0.243000
     15 N3          -0.6320     0.1850    -0.4380 nb         1 EKT      -0.302000
     16 C4          -1.6880    -0.6490    -0.4100 ca         1 EKT       0.394900
     17 C5          -1.5310    -2.0510    -0.5260 ca         1 EKT      -0.229000
     18 C6          -0.2030    -2.5290    -0.5430 ca         1 EKT       0.127900
     19 N7          -2.9710    -0.0790    -0.2320 nh         1 EKT      -0.768300
     20 C8          -3.2480     1.3360    -0.6210 c3         1 EKT       0.224800
     21 C9          -3.1160     2.3500     0.5400 c3         1 EKT      -0.098400
     22 C10         -3.3920     3.8260     0.1460 c3         1 EKT      -0.056700
     23 N14         -2.6700    -2.9430    -0.4140 n          1 EKT      -0.191400
     24 O17         -4.9690    -3.1580    -0.1890 o          1 EKT      -0.539000
     25 N25          1.6270     0.5280    -0.5760 nu         1 EKT      -0.928900
     26 F26          5.8820     2.3570    -1.7580 f          1 EKT      -0.170500
     27 F27          5.6910    -1.7180     0.7510 f          1 EKT      -0.170500
     28 H1          -2.4420     4.7380     1.8970 hc         1 EKT       0.033867
     29 H2          -3.6680     5.7660     1.1220 hc         1 EKT       0.033867
     30 H3          -4.1710     4.3860     2.1140 hc         1 EKT       0.033867
     31 H4          -2.5870     5.4250    -1.1140 hc         1 EKT       0.033867
     32 H5          -1.3590     4.2800    -0.5380 hc         1 EKT       0.033867
     33 H6          -2.4700     3.8230    -1.8490 hc         1 EKT       0.033867
     34 H7          -3.8000     0.0090     2.3880 hc         1 EKT       0.054700
     35 H8          -4.4610    -1.6260     2.4650 hc         1 EKT       0.054700
     36 H9          -2.7400    -1.3840     2.1530 hc         1 EKT       0.054700
     37 H10          3.1160    -1.4040     0.6180 ha         1 EKT       0.155000
     38 H11          3.2820     2.2580    -1.6600 ha         1 EKT       0.155000
     39 H12         -2.1370    -4.9530    -0.0090 h1         1 EKT       0.052367
     40 H13         -3.4720    -4.7790    -1.1810 h1         1 EKT       0.052367
     41 H14         -1.8120    -4.4160    -1.6830 h1         1 EKT       0.052367
     42 H15         -5.6050     0.5990     0.6320 hc         1 EKT       0.054700
     43 H16         -5.7540    -0.3680    -0.8480 hc         1 EKT       0.054700
     44 H17         -6.2210    -1.0410     0.7160 hc         1 EKT       0.054700
     45 H18          0.0300    -3.5920    -0.5520 h4         1 EKT       0.029100
     46 H19         -2.5530     1.6250    -1.4200 h1         1 EKT       0.062700
     47 H20         -4.2440     1.4330    -1.0720 h1         1 EKT       0.062700
     48 H21         -3.8180     2.0670     1.3310 hc         1 EKT       0.047700
     49 H22         -2.1110     2.2720     0.9720 hc         1 EKT       0.047700
     50 H23         -4.3930     3.8690    -0.3030 hc         1 EKT       0.042700
     51 H24          7.5020    -0.5550    -0.0050 ho         1 EKT       0.476000
     52 H25          1.2930     1.4750    -0.7470 hn         1 EKT       0.512000
     53 C28         -2.5180    -4.3550    -0.8460 c3         1 EKT       0.081300
     54 O24          7.2240     0.2500    -0.4950 oh         1 EKT      -0.509100
@<TRIPOS>BOND
     1     1    14 ar  
     2     1    15 ar  
     3     1    25 1   
     4     2    22 1   
     5     2    28 1   
     6     2    29 1   
     7     2    30 1   
     8     3    22 1   
     9     3    31 1   
    10     3    32 1   
    11     3    33 1   
    12     4     5 1   
    13     4     6 1   
    14     4    13 1   
    15     4    19 1   
    16     5    23 1   
    17     5    24 2   
    18     6    34 1   
    19     6    35 1   
    20     6    36 1   
    21     7     8 ar  
    22     7    12 ar  
    23     7    37 1   
    24     8     9 ar  
    25     8    27 1   
    26     9    10 ar  
    27     9    54 1   
    28    10    11 ar  
    29    10    26 1   
    30    11    12 ar  
    31    11    38 1   
    32    12    25 1   
    33    13    42 1   
    34    13    43 1   
    35    13    44 1   
    36    14    18 ar  
    37    15    16 ar  
    38    16    17 ar  
    39    16    19 1   
    40    17    18 ar  
    41    17    23 1   
    42    18    45 1   
    43    19    20 1   
    44    20    21 1   
    45    20    46 1   
    46    20    47 1   
    47    21    22 1   
    48    21    48 1   
    49    21    49 1   
    50    22    50 1   
    51    23    53 1   
    52    25    52 1   
    53    39    53 1   
    54    40    53 1   
    55    41    53 1   
    56    51    54 1   
@<TRIPOS>SUBSTRUCTURE
     1 EKT         1 TEMP              0 ****  ****    0 ROOT
