@<TRIPOS>MOLECULE
EKT
   54    56     1     0     0
SMALL
bcc


@<TRIPOS>ATOM
      1 C2           0.4390    -0.2940    -0.4310 ca         1 EKT       0.928900
      2 C11         -3.2540     4.5920     1.2840 c3         1 EKT      -0.087600
      3 C12         -1.6820     3.9900    -0.5680 c3         1 EKT      -0.087600
      4 C13         -4.1000    -0.9520     0.3010 c6         1 EKT       0.181200
      5 C15         -3.9500    -2.4280    -0.1020 c          1 EKT       0.707500
      6 C16         -3.9250    -0.8880     1.8290 c3         1 EKT      -0.102100
      7 C18          3.4980    -0.6670    -0.3910 ca         1 EKT      -0.202000
      8 C19          4.8780    -0.6480    -0.4290 ca         1 EKT       0.126900
      9 C20          5.6360     0.4860    -0.6710 ca         1 EKT       0.029100
     10 C21          4.9070     1.6490    -0.8880 ca         1 EKT       0.126900
     11 C22          3.5320     1.6890    -0.8670 ca         1 EKT      -0.202000
     12 C23          2.8020     0.5210    -0.6140 ca         1 EKT       0.206600
     13 C29         -5.5010    -0.4850    -0.0720 c3         1 EKT      -0.102100
     14 N1           0.7470    -1.5590    -0.2210 nb         1 EKT      -0.769000
     15 N3          -0.7930     0.2140    -0.4920 nb         1 EKT      -0.828000
     16 C4          -1.8120    -0.6140    -0.3550 ca         1 EKT       0.723200
     17 C5          -1.5940    -2.0050    -0.2040 ca         1 EKT      -0.267000
     18 C6          -0.2850    -2.4060    -0.1240 ca         1 EKT       0.456200
     19 N7          -3.0780    -0.1500    -0.3900 nh         1 EKT      -0.768300
     20 C8          -3.2830     1.2640    -0.6780 c3         1 EKT       0.224800
     21 C9          -3.1140     2.2050     0.5130 c3         1 EKT      -0.098400
     22 C10         -3.0240     3.6730     0.0880 c3         1 EKT      -0.056700
     23 N14         -2.6810    -2.8810    -0.2490 n          1 EKT      -0.351000
     24 O17         -4.9210    -3.1540    -0.2120 o          1 EKT      -0.614500
     25 N25          1.4230     0.6410    -0.5990 nu         1 EKT      -0.735300
     26 F26          5.5900     2.7750    -1.1290 f          1 EKT      -0.135400
     27 F27          5.5450    -1.7960    -0.2130 f          1 EKT      -0.135400
     28 H1          -2.4880     4.4340     2.0470 hc         1 EKT       0.033867
     29 H2          -3.2130     5.6420     0.9890 hc         1 EKT       0.033867
     30 H3          -4.2260     4.4130     1.7460 hc         1 EKT       0.033867
     31 H4          -1.6550     5.0230    -0.9200 hc         1 EKT       0.033867
     32 H5          -0.8690     3.8630     0.1510 hc         1 EKT       0.033867
     33 H6          -1.4690     3.3470    -1.4210 hc         1 EKT       0.033867
     34 H7          -4.1190     0.1210     2.1900 hc         1 EKT       0.054700
     35 H8          -4.6300    -1.5600     2.3200 hc         1 EKT       0.054700
     36 H9          -2.9180    -1.1690     2.1400 hc         1 EKT       0.054700
     37 H10          2.9810    -1.5920    -0.1910 ha         1 EKT       0.173000
     38 H11          3.0300     2.6310    -1.0490 ha         1 EKT       0.173000
     39 H12         -1.9550    -4.7610     0.3610 h1         1 EKT       0.052367
     40 H13         -3.3580    -4.7930    -0.7110 h1         1 EKT       0.052367
     41 H14         -1.7640    -4.3950    -1.3630 h1         1 EKT       0.052367
     42 H15         -5.6830     0.5270     0.2850 hc         1 EKT       0.054700
     43 H16         -5.6650    -0.5070    -1.1490 hc         1 EKT       0.054700
     44 H17         -6.2390    -1.1270     0.4010 hc         1 EKT       0.054700
     45 H18         -0.0270    -3.4500     0.0060 h4         1 EKT       0.029100
     46 H19         -2.5750     1.5270    -1.4610 h1         1 EKT       0.062700
     47 H20         -4.2720     1.3860    -1.1160 h1         1 EKT       0.062700
     48 H21         -3.9550     2.0800     1.2020 hc         1 EKT       0.047700
     49 H22         -2.2110     1.9350     1.0690 hc         1 EKT       0.047700
     50 H23         -3.8190     3.8650    -0.6430 hc         1 EKT       0.042700
     51 H24          7.3540    -0.3310    -0.4810 ho         1 EKT       0.437000
     52 H25          1.0630     1.5710    -0.7510 hn         1 EKT       0.456800
     53 C28         -2.4240    -4.2870    -0.5020 c3         1 EKT       0.081300
     54 O24          6.9820     0.5280    -0.7090 oh         1 EKT      -0.470100
@<TRIPOS>BOND
     1     1    14 ar  
     2     1    15 ar  
     3     1    25 1   
     4     2    22 1   
     5     2    28 1   
     6     2    29 1   
     7     2    30 1   
     8     3    22 1   
     9     3    31 1   
    10     3    32 1   
    11     3    33 1   
    12     4     5 1   
    13     4     6 1   
    14     4    13 1   
    15     4    19 1   
    16     5    23 1   
    17     5    24 2   
    18     6    34 1   
    19     6    35 1   
    20     6    36 1   
    21     7     8 ar  
    22     7    12 ar  
    23     7    37 1   
    24     8     9 ar  
    25     8    27 1   
    26     9    10 ar  
    27     9    54 1   
    28    10    11 ar  
    29    10    26 1   
    30    11    12 ar  
    31    11    38 1   
    32    12    25 1   
    33    13    42 1   
    34    13    43 1   
    35    13    44 1   
    36    14    18 ar  
    37    15    16 ar  
    38    16    17 ar  
    39    16    19 1   
    40    17    18 ar  
    41    17    23 1   
    42    18    45 1   
    43    19    20 1   
    44    20    21 1   
    45    20    46 1   
    46    20    47 1   
    47    21    22 1   
    48    21    48 1   
    49    21    49 1   
    50    22    50 1   
    51    23    53 1   
    52    25    52 1   
    53    39    53 1   
    54    40    53 1   
    55    41    53 1   
    56    51    54 1   
@<TRIPOS>SUBSTRUCTURE
     1 EKT         1 TEMP              0 ****  ****    0 ROOT
