@<TRIPOS>MOLECULE
EKU
   27    29     1     0     0
SMALL
No Charge or Current Charge


@<TRIPOS>ATOM
      1 C1          20.8140    -0.2920    23.9760 ca         1 EKU      -0.253000
      2 C2          21.9970    -0.3350    23.2350 ca         1 EKU       0.291100
      3 C3          23.0630    -1.1540    23.6430 ca         1 EKU      -0.385600
      4 C4          24.3390    -1.2310    22.8860 c          1 EKU       0.640300
      5 C5          25.4010    -2.1330    23.4120 ca         1 EKU      -0.300600
      6 C6          25.1470    -2.8620    24.5890 ca         1 EKU       0.119100
      7 C           20.6860    -1.0660    25.1300 ca         1 EKU       0.255100
      8 O           19.5330    -1.0200    25.8470 oh         1 EKU      -0.515100
      9 C10         27.3650    -3.8640    24.4710 ca         1 EKU      -0.046000
     10 C11         27.6210    -3.1380    23.2960 ca         1 EKU      -0.166000
     11 C12         26.6470    -2.2780    22.7690 ca         1 EKU       0.222100
     12 C7          22.9250    -1.9270    24.8030 ca         1 EKU       0.270100
     13 C8          21.7390    -1.8840    25.5460 ca         1 EKU      -0.309000
     14 C9          26.1270    -3.7280    25.1210 ca         1 EKU       0.074100
     15 O1          22.1000     0.4250    22.1160 oh         1 EKU      -0.529100
     16 O2          23.9400    -2.7420    25.2410 os         1 EKU      -0.234200
     17 O3          25.8830    -4.4390    26.2660 oh         1 EKU      -0.529100
     18 O4          26.9220    -1.5880    21.6310 oh         1 EKU      -0.534100
     19 O5          24.5080    -0.5720    21.8630 o          1 EKU      -0.636100
     20 H1          19.9950     0.3430    23.6540 ha         1 EKU       0.155000
     21 H           19.6310    -1.6230    26.6130 ho         1 EKU       0.477000
     22 H5          28.1220    -4.5310    24.8780 ha         1 EKU       0.138000
     23 H6          28.5790    -3.2420    22.7920 ha         1 EKU       0.142000
     24 H3          21.6510    -2.4910    26.4430 ha         1 EKU       0.137000
     25 H2          23.0070     0.2390    21.7590 ho         1 EKU       0.522000
     26 H4          24.9760    -4.2160    26.5730 ho         1 EKU       0.479000
     27 H7          26.1100    -1.0510    21.4390 ho         1 EKU       0.516000
@<TRIPOS>BOND
     1     1     2 ar  
     2     1     7 ar  
     3     1    20 1   
     4     2     3 ar  
     5     2    15 1   
     6     3     4 1   
     7     3    12 ar  
     8     4     5 1   
     9     4    19 2   
    10     5     6 ar  
    11     5    11 ar  
    12     6    14 ar  
    13     6    16 1   
    14     7     8 1   
    15     7    13 ar  
    16     8    21 1   
    17     9    10 ar  
    18     9    14 ar  
    19     9    22 1   
    20    10    11 ar  
    21    10    23 1   
    22    11    18 1   
    23    12    13 ar  
    24    12    16 1   
    25    13    24 1   
    26    14    17 1   
    27    15    25 1   
    28    17    26 1   
    29    18    27 1   
@<TRIPOS>SUBSTRUCTURE
     1 EKU         1 TEMP              0 ****  ****    0 ROOT
