@<TRIPOS>MOLECULE
EKU
   27    29     1     0     0
SMALL
bcc


@<TRIPOS>ATOM
      1 C1          20.8660    -0.3180    23.9800 ca         1 EKU      -0.271000
      2 C2          22.0280    -0.3570    23.2340 ca         1 EKU       0.291100
      3 C3          23.1080    -1.1860    23.6380 ca         1 EKU      -0.385600
      4 C4          24.3340    -1.2440    22.8940 c          1 EKU       0.640300
      5 C5          25.3680    -2.1200    23.4070 ca         1 EKU      -0.300600
      6 C6          25.1150    -2.8520    24.5720 ca         1 EKU       0.119100
      7 C           20.7560    -1.0980    25.1340 ca         1 EKU       0.255100
      8 O           19.6100    -1.0080    25.8090 oh         1 EKU      -0.476100
      9 C10         27.2810    -3.8180    24.4670 ca         1 EKU      -0.064000
     10 C11         27.5610    -3.1070    23.3090 ca         1 EKU      -0.184000
     11 C12         26.6160    -2.2520    22.7620 ca         1 EKU       0.222100
     12 C7          22.9500    -1.9540    24.7990 ca         1 EKU       0.270100
     13 C8          21.7960    -1.9270    25.5550 ca         1 EKU      -0.327000
     14 C9          26.0620    -3.7090    25.1210 ca         1 EKU       0.074100
     15 O1          22.1130     0.3910    22.1420 oh         1 EKU      -0.490100
     16 O2          23.9360    -2.7620    25.2270 os         1 EKU      -0.234200
     17 O3          25.8510    -4.4280    26.2430 oh         1 EKU      -0.490100
     18 O4          26.9110    -1.5790    21.6480 oh         1 EKU      -0.495100
     19 O5          24.5090    -0.5730    21.8570 o          1 EKU      -0.636100
     20 H1          20.0440     0.3160    23.6730 ha         1 EKU       0.173000
     21 H           19.6200    -1.5690    26.5950 ho         1 EKU       0.438000
     22 H5          28.0330    -4.4790    24.8790 ha         1 EKU       0.156000
     23 H6          28.5240    -3.2190    22.8280 ha         1 EKU       0.160000
     24 H3          21.7100    -2.5330    26.4480 ha         1 EKU       0.155000
     25 H2          22.9990     0.2490    21.7390 ho         1 EKU       0.483000
     26 H4          24.9880    -4.2370    26.6270 ho         1 EKU       0.440000
     27 H7          26.1380    -1.0280    21.4060 ho         1 EKU       0.477000
@<TRIPOS>BOND
     1     1     2 ar  
     2     1     7 ar  
     3     1    20 1   
     4     2     3 ar  
     5     2    15 1   
     6     3     4 1   
     7     3    12 ar  
     8     4     5 1   
     9     4    19 2   
    10     5     6 ar  
    11     5    11 ar  
    12     6    14 ar  
    13     6    16 1   
    14     7     8 1   
    15     7    13 ar  
    16     8    21 1   
    17     9    10 ar  
    18     9    14 ar  
    19     9    22 1   
    20    10    11 ar  
    21    10    23 1   
    22    11    18 1   
    23    12    13 ar  
    24    12    16 1   
    25    13    24 1   
    26    14    17 1   
    27    15    25 1   
    28    17    26 1   
    29    18    27 1   
@<TRIPOS>SUBSTRUCTURE
     1 EKU         1 TEMP              0 ****  ****    0 ROOT
