@<TRIPOS>MOLECULE
EKX
   35    36     1     0     0
SMALL
No Charge or Current Charge


@<TRIPOS>ATOM
      1 N1         -16.0140    15.9130    -4.1180 n          1 EKX      -0.355800
      2 C4         -12.1990    16.3630    -3.8010 ca         1 EKX      -0.081000
      3 C5         -13.5100    16.4080    -4.3210 ca         1 EKX      -0.015300
      4 C6         -13.7000    16.7340    -5.6840 ca         1 EKX      -0.092300
      5 C7         -14.7020    16.0810    -3.3990 c6         1 EKX      -0.027000
      6 C8         -16.2040    16.8890    -5.2250 c6         1 EKX       0.104000
      7 C10        -14.7350    17.0830    -2.2010 c          1 EKX       0.729000
      8 C13        -18.7940    13.4380    -4.0510 c3         1 EKX       0.105600
      9 C1         -12.5890    17.0160    -6.5010 ca         1 EKX      -0.122000
     10 C11        -17.0970    15.2600    -3.4770 c          1 EKX       0.621100
     11 C12        -18.3650    14.9020    -4.2910 c3         1 EKX      -0.132700
     12 C14        -19.5090    15.8920    -3.9670 c3         1 EKX      -0.082100
     13 C2         -11.2900    16.9790    -5.9710 ca         1 EKX      -0.142000
     14 C3         -11.0950    16.6510    -4.6210 ca         1 EKX      -0.125000
     15 C9         -15.1010    16.7510    -6.2900 c6         1 EKX      -0.038100
     16 O1         -15.2200    18.1940    -2.3740 o          1 EKX      -0.712500
     17 O2         -14.2360    16.7270    -1.1400 o          1 EKX      -0.712500
     18 O3         -17.0200    14.9560    -2.2910 o          1 EKX      -0.618100
     19 H1         -12.0340    16.1030    -2.7580 ha         1 EKX       0.138000
     20 H2         -14.4710    15.1110    -2.9390 h1         1 EKX       0.085700
     21 H3         -16.1630    17.9050    -4.8080 h1         1 EKX       0.049700
     22 H4         -17.1840    16.7960    -5.7060 h1         1 EKX       0.049700
     23 H6         -18.9700    13.2680    -2.9810 h1         1 EKX       0.059200
     24 H7         -12.7330    17.2610    -7.5510 ha         1 EKX       0.087000
     25 H8         -18.1540    15.0060    -5.3600 hc         1 EKX       0.057700
     26 H9         -19.1980    16.9250    -4.1690 hc         1 EKX       0.042367
     27 H10        -20.3940    15.6790    -4.5800 hc         1 EKX       0.042367
     28 H11        -19.7980    15.8240    -2.9110 hc         1 EKX       0.042367
     29 H12        -10.4350    17.1990    -6.6070 ha         1 EKX       0.088000
     30 H13        -10.0890    16.6160    -4.2090 ha         1 EKX       0.094000
     31 H14        -15.1910    17.5720    -7.0150 hc         1 EKX       0.035700
     32 H15        -15.2580    15.8210    -6.8520 hc         1 EKX       0.035700
     33 H17        -18.2520    11.1010    -4.2950 hs         1 EKX       0.193800
     34 S1         -17.5510    12.2040    -4.6550 sh         1 EKX      -0.460800
     35 H5         -19.7380    13.2470    -4.5800 h1         1 EKX       0.059200
@<TRIPOS>BOND
     1     1     5 1   
     2     1     6 1   
     3     1    10 1   
     4     2     3 ar  
     5     2    14 ar  
     6     2    19 1   
     7     3     4 ar  
     8     3     5 1   
     9     4     9 ar  
    10     4    15 1   
    11     5     7 1   
    12     5    20 1   
    13     6    15 1   
    14     6    21 1   
    15     6    22 1   
    16     7    16 1   
    17     7    17 1   
    18     8    11 1   
    19     8    23 1   
    20     8    34 1   
    21     8    35 1   
    22     9    13 ar  
    23     9    24 1   
    24    10    11 1   
    25    10    18 2   
    26    11    12 1   
    27    11    25 1   
    28    12    26 1   
    29    12    27 1   
    30    12    28 1   
    31    13    14 ar  
    32    13    29 1   
    33    14    30 1   
    34    15    31 1   
    35    15    32 1   
    36    33    34 1   
@<TRIPOS>SUBSTRUCTURE
     1 EKX         1 TEMP              0 ****  ****    0 ROOT
