@<TRIPOS>MOLECULE
EKX
   35    36     1     0     0
SMALL
abcg2


@<TRIPOS>ATOM
      1 N1         -15.9630    15.8810    -4.1450 n          1 EKX      -0.355800
      2 C4         -12.2920    16.3950    -3.7480 ca         1 EKX      -0.081000
      3 C5         -13.5820    16.4200    -4.2830 ca         1 EKX      -0.015300
      4 C6         -13.7380    16.6700    -5.6480 ca         1 EKX      -0.092300
      5 C7         -14.7630    16.1510    -3.3790 c6         1 EKX      -0.027000
      6 C8         -16.1870    16.8170    -5.2300 c6         1 EKX       0.104000
      7 C10        -14.9950    17.2900    -2.3180 c          1 EKX       0.729000
      8 C13        -18.8220    13.5210    -4.1330 c3         1 EKX       0.105600
      9 C1         -12.6140    16.9160    -6.4360 ca         1 EKX      -0.122000
     10 C11        -16.8870    15.0480    -3.6220 c          1 EKX       0.621100
     11 C12        -18.2310    14.9090    -4.3350 c3         1 EKX      -0.132700
     12 C14        -19.1920    15.9670    -3.7820 c3         1 EKX      -0.082100
     13 C2         -11.3410    16.9060    -5.8930 ca         1 EKX      -0.142000
     14 C3         -11.1820    16.6360    -4.5380 ca         1 EKX      -0.125000
     15 C9         -15.1030    16.6520    -6.2750 c6         1 EKX      -0.038100
     16 O1         -16.1370    17.7700    -2.2520 o          1 EKX      -0.712500
     17 O2         -14.0050    17.5730    -1.6230 o          1 EKX      -0.712500
     18 O3         -16.6830    14.4210    -2.5900 o          1 EKX      -0.618100
     19 H1         -12.1610    16.1840    -2.6960 ha         1 EKX       0.138000
     20 H2         -14.5310    15.2540    -2.8020 h1         1 EKX       0.085700
     21 H3         -16.1740    17.8320    -4.8270 h1         1 EKX       0.049700
     22 H4         -17.1640    16.6740    -5.6810 h1         1 EKX       0.049700
     23 H6         -18.8760    13.2730    -3.0750 h1         1 EKX       0.059200
     24 H7         -12.7470    17.1160    -7.4930 ha         1 EKX       0.087000
     25 H8         -18.1230    15.0640    -5.4100 hc         1 EKX       0.057700
     26 H9         -18.8120    16.9770    -3.9380 hc         1 EKX       0.042367
     27 H10        -20.1610    15.8950    -4.2750 hc         1 EKX       0.042367
     28 H11        -19.3430    15.8300    -2.7110 hc         1 EKX       0.042367
     29 H12        -10.4790    17.0990    -6.5200 ha         1 EKX       0.088000
     30 H13        -10.1920    16.6100    -4.1000 ha         1 EKX       0.094000
     31 H14        -15.1900    17.4450    -7.0210 hc         1 EKX       0.035700
     32 H15        -15.2530    15.7070    -6.8060 hc         1 EKX       0.035700
     33 H17        -18.4380    11.1900    -4.5630 hs         1 EKX       0.193800
     34 S1         -17.8010    12.2810    -5.0010 sh         1 EKX      -0.460800
     35 H5         -19.8300    13.5000    -4.5460 h1         1 EKX       0.059200
@<TRIPOS>BOND
     1     1     5 1   
     2     1     6 1   
     3     1    10 1   
     4     2     3 ar  
     5     2    14 ar  
     6     2    19 1   
     7     3     4 ar  
     8     3     5 1   
     9     4     9 ar  
    10     4    15 1   
    11     5     7 1   
    12     5    20 1   
    13     6    15 1   
    14     6    21 1   
    15     6    22 1   
    16     7    16 1   
    17     7    17 1   
    18     8    11 1   
    19     8    23 1   
    20     8    34 1   
    21     8    35 1   
    22     9    13 ar  
    23     9    24 1   
    24    10    11 1   
    25    10    18 2   
    26    11    12 1   
    27    11    25 1   
    28    12    26 1   
    29    12    27 1   
    30    12    28 1   
    31    13    14 ar  
    32    13    29 1   
    33    14    30 1   
    34    15    31 1   
    35    15    32 1   
    36    33    34 1   
@<TRIPOS>SUBSTRUCTURE
     1 EKX         1 TEMP              0 ****  ****    0 ROOT
