@<TRIPOS>MOLECULE
EKZ
   26    26     1     0     0
SMALL
No Charge or Current Charge


@<TRIPOS>ATOM
      1 CAA          2.5940     0.8570     1.2730 c3         1 EKZ      -0.082767
      2 CAL          2.2170     0.0640    -0.0080 c3         1 EKZ       0.004300
      3 CAB          2.6820     0.8560    -1.2600 c3         1 EKZ      -0.082767
      4 CAC          2.9910    -1.2840     0.0200 c3         1 EKZ      -0.082767
      5 CAK          0.6760    -0.1190    -0.0610 ca         1 EKZ      -0.074300
      6 CAH         -0.1610     1.0230    -0.0910 ca         1 EKZ      -0.105000
      7 CAJ         -1.5580     0.8970    -0.1400 ca         1 EKZ       0.095100
      8 OAE         -2.3470     2.0120    -0.1670 oh         1 EKZ      -0.545100
      9 CAI         -2.1550    -0.3770    -0.1600 ca         1 EKZ       0.067100
     10 OAD         -3.5180    -0.4990    -0.2080 oh         1 EKZ      -0.541100
     11 CAF         -1.3460    -1.5200    -0.1310 ca         1 EKZ      -0.172000
     12 CAG          0.0550    -1.3950    -0.0830 ca         1 EKZ      -0.093000
     13 H1           2.1550     1.8610     1.2720 hc         1 EKZ       0.035922
     14 H2           2.2400     0.3340     2.1700 hc         1 EKZ       0.035922
     15 H3           3.6820     0.9740     1.3560 hc         1 EKZ       0.035922
     16 H4           3.7730     0.9730    -1.2670 hc         1 EKZ       0.035922
     17 H5           2.3920     0.3320    -2.1780 hc         1 EKZ       0.035922
     18 H6           2.2440     1.8600    -1.2910 hc         1 EKZ       0.035922
     19 H7           2.7220    -1.8770     0.9020 hc         1 EKZ       0.035922
     20 H8           2.7840    -1.8780    -0.8780 hc         1 EKZ       0.035922
     21 H9           4.0740    -1.1120     0.0580 hc         1 EKZ       0.035922
     22 H10          0.2680     2.0210    -0.0760 ha         1 EKZ       0.130000
     23 H11         -3.2750     1.6870    -0.2000 ho         1 EKZ       0.467000
     24 H12         -3.7490    -1.4540    -0.2150 ho         1 EKZ       0.466000
     25 H13         -1.7930    -2.5120    -0.1470 ha         1 EKZ       0.112000
     26 H14          0.6390    -2.3100    -0.0620 ha         1 EKZ       0.116000
@<TRIPOS>BOND
     1     1     2 1   
     2     1    13 1   
     3     1    14 1   
     4     1    15 1   
     5     2     3 1   
     6     2     4 1   
     7     2     5 1   
     8     3    16 1   
     9     3    17 1   
    10     3    18 1   
    11     4    19 1   
    12     4    20 1   
    13     4    21 1   
    14     5     6 ar  
    15     5    12 ar  
    16     6     7 ar  
    17     6    22 1   
    18     7     8 1   
    19     7     9 ar  
    20     8    23 1   
    21     9    10 1   
    22     9    11 ar  
    23    10    24 1   
    24    11    12 ar  
    25    11    25 1   
    26    12    26 1   
@<TRIPOS>SUBSTRUCTURE
     1 EKZ         1 TEMP              0 ****  ****    0 ROOT
