@<TRIPOS>MOLECULE
EKZ
   26    26     1     0     0
SMALL
abcg2


@<TRIPOS>ATOM
      1 CAA          2.6190     0.8050     1.2960 c3         1 EKZ      -0.082767
      2 CAL          2.1870     0.0850     0.0140 c3         1 EKZ       0.004300
      3 CAB          2.5680     0.9190    -1.2160 c3         1 EKZ      -0.082767
      4 CAC          2.9210    -1.2510    -0.0730 c3         1 EKZ      -0.082767
      5 CAK          0.6890    -0.1610     0.0320 ca         1 EKZ      -0.074300
      6 CAH         -0.1420     0.9640    -0.0140 ca         1 EKZ      -0.105000
      7 CAJ         -1.5190     0.8340    -0.1010 ca         1 EKZ       0.095100
      8 OAE         -2.2870     1.9660    -0.2290 oh         1 EKZ      -0.545100
      9 CAI         -2.1210    -0.4300    -0.0710 ca         1 EKZ       0.067100
     10 OAD         -3.4710    -0.4740    -0.1500 oh         1 EKZ      -0.541100
     11 CAF         -1.3020    -1.5420     0.0010 ca         1 EKZ      -0.172000
     12 CAG          0.0840    -1.4060     0.0480 ca         1 EKZ      -0.093000
     13 H1           2.1320     1.7750     1.4140 hc         1 EKZ       0.035922
     14 H2           2.3710     0.2170     2.1790 hc         1 EKZ       0.035922
     15 H3           3.6970     0.9800     1.2930 hc         1 EKZ       0.035922
     16 H4           3.6510     1.0560    -1.2530 hc         1 EKZ       0.035922
     17 H5           2.2660     0.4160    -2.1360 hc         1 EKZ       0.035922
     18 H6           2.1110     1.9070    -1.2130 hc         1 EKZ       0.035922
     19 H7           2.7270    -1.8770     0.8030 hc         1 EKZ       0.035922
     20 H8           2.6290    -1.8180    -0.9600 hc         1 EKZ       0.035922
     21 H9           3.9990    -1.0840    -0.1310 hc         1 EKZ       0.035922
     22 H10          0.2920     1.9560    -0.0310 ha         1 EKZ       0.130000
     23 H11         -2.9940     1.7950    -0.8620 ho         1 EKZ       0.467000
     24 H12         -3.7660    -1.3780    -0.3100 ho         1 EKZ       0.466000
     25 H13         -1.7440    -2.5320     0.0180 ha         1 EKZ       0.112000
     26 H14          0.6890    -2.3070     0.0810 ha         1 EKZ       0.116000
@<TRIPOS>BOND
     1     1     2 1   
     2     1    13 1   
     3     1    14 1   
     4     1    15 1   
     5     2     3 1   
     6     2     4 1   
     7     2     5 1   
     8     3    16 1   
     9     3    17 1   
    10     3    18 1   
    11     4    19 1   
    12     4    20 1   
    13     4    21 1   
    14     5     6 ar  
    15     5    12 ar  
    16     6     7 ar  
    17     6    22 1   
    18     7     8 1   
    19     7     9 ar  
    20     8    23 1   
    21     9    10 1   
    22     9    11 ar  
    23    10    24 1   
    24    11    12 ar  
    25    11    25 1   
    26    12    26 1   
@<TRIPOS>SUBSTRUCTURE
     1 EKZ         1 TEMP              0 ****  ****    0 ROOT
