@<TRIPOS>MOLECULE
EL0
   73    78     1     0     0
SMALL
No Charge or Current Charge


@<TRIPOS>ATOM
      1 CBO          8.5570    -8.8930    -8.8760 c3         1 EL0       0.146900
      2 OBN          8.0000    -7.5730    -8.7500 os         1 EL0      -0.321100
      3 CBJ          7.5010    -6.8730    -9.8340 ca         1 EL0       0.150100
      4 CBK          6.9820    -5.5780    -9.6260 ca         1 EL0       0.077000
      5 Cl           6.9560    -4.8620    -8.0140 cl         1 EL0      -0.173000
      6 CBL          6.4710    -4.8370   -10.7040 ca         1 EL0      -0.046000
      7 CBI          7.4800    -7.4220   -11.1360 ca         1 EL0      -0.202000
      8 CBH          6.9740    -6.6700   -12.2120 ca         1 EL0      -0.073000
      9 CBG          6.5190    -5.3520   -12.0150 ca         1 EL0      -0.087000
     10 NBA          5.9070    -4.6400   -13.1090 n          1 EL0      -0.246400
     11 CAZ          4.7130    -5.1240   -13.7150 c          1 EL0       0.581000
     12 OBF          4.1540    -6.1330   -13.3030 o          1 EL0      -0.537000
     13 CAY          4.1230    -4.3940   -14.9320 c6         1 EL0      -0.158400
     14 CAX          5.1350    -3.5250   -15.6990 c6         1 EL0      -0.073400
     15 CAW          5.8550    -2.6170   -14.6930 c6         1 EL0      -0.087400
     16 CAR          6.6530    -3.4510   -13.6530 c6         1 EL0       0.131400
     17 CAO          7.2210    -2.5340   -12.5680 cc         1 EL0       0.389800
     18 NAP          6.5150    -1.5670   -11.9370 nd         1 EL0      -0.560100
     19 CAL          7.4060    -1.0180   -11.0300 ca         1 EL0       0.064400
     20 CAM          7.1620     0.0210   -10.1230 ca         1 EL0      -0.046000
     21 CAH          8.2020     0.4490    -9.2600 ca         1 EL0      -0.016000
     22 CAA          7.9780     1.5330    -8.2840 cc         1 EL0      -0.175000
     23 CAE          7.2320     2.6470    -8.5570 cd         1 EL0       0.199300
     24 CAF          6.4680     3.0890    -9.7780 c3         1 EL0      -0.139400
     25 OAD          7.3290     3.5340    -7.5170 os         1 EL0      -0.072700
     26 NAC          8.2240     2.9970    -6.5330 nd         1 EL0      -0.367300
     27 CAB          8.5940     1.8350    -7.0420 cc         1 EL0       0.292300
     28 CAG          9.5310     0.9160    -6.3090 c3         1 EL0      -0.134400
     29 CAI          9.4620    -0.2010    -9.3450 ca         1 EL0      -0.079000
     30 CAJ          9.6840    -1.2440   -10.2680 ca         1 EL0      -0.108000
     31 CAK          8.6200    -1.6260   -11.0960 ca         1 EL0      -0.076200
     32 NAN          8.5410    -2.5960   -12.0600 na         1 EL0      -0.170600
     33 CAQ          9.6110    -3.5300   -12.4690 c5         1 EL0       0.090300
     34 CAV         10.9360    -2.8520   -12.9570 c5         1 EL0       0.186800
     35 CAS         10.1020    -4.5000   -11.3530 c5         1 EL0      -0.100400
     36 CAT         11.5440    -4.7980   -11.8060 c5         1 EL0       0.199800
     37 NAU         11.9920    -3.4280   -12.0900 n3         1 EL0      -0.742500
     38 SBB         13.6390    -3.1330   -12.4690 s6         1 EL0       1.208100
     39 OBC         14.4180    -3.5280   -11.2920 o          1 EL0      -0.525000
     40 OBD         13.7110    -1.7520   -12.9540 o          1 EL0      -0.525000
     41 CBE         13.9910    -4.2360   -13.8280 c3         1 EL0      -0.383100
     42 H1           8.9000    -9.2550    -7.8990 h1         1 EL0       0.044033
     43 H2           7.8080    -9.5980    -9.2560 h1         1 EL0       0.044033
     44 H3           9.4180    -8.8900    -9.5580 h1         1 EL0       0.044033
     45 H4           6.0350    -3.8610   -10.5100 ha         1 EL0       0.154000
     46 H5           7.8460    -8.4250   -11.3330 ha         1 EL0       0.121000
     47 H6           6.9510    -7.1080   -13.2070 ha         1 EL0       0.118000
     48 H7           3.3460    -3.7300   -14.5300 hc         1 EL0       0.078200
     49 H8           3.6020    -5.1130   -15.5770 hc         1 EL0       0.078200
     50 H9           4.6190    -2.9220   -16.4590 hc         1 EL0       0.050700
     51 H10          5.8600    -4.1590   -16.2290 hc         1 EL0       0.050700
     52 H11          6.5360    -1.9360   -15.2220 hc         1 EL0       0.068200
     53 H12          5.1130    -1.9810   -14.1900 hc         1 EL0       0.068200
     54 H13          7.4850    -3.8750   -14.2270 h1         1 EL0       0.044700
     55 H14          6.1690     0.4540   -10.0730 ha         1 EL0       0.131000
     56 H15          6.3840     4.1810    -9.8130 hc         1 EL0       0.064367
     57 H16          6.9690     2.7710   -10.6990 hc         1 EL0       0.064367
     58 H17          5.4510     2.6800    -9.7750 hc         1 EL0       0.064367
     59 H18          9.4670     1.0750    -5.2260 hc         1 EL0       0.057367
     60 H19          9.2860    -0.1350    -6.5000 hc         1 EL0       0.057367
     61 H20         10.5690     1.0950    -6.6100 hc         1 EL0       0.057367
     62 H21         10.2920     0.1170    -8.7230 ha         1 EL0       0.121000
     63 H22         10.6570    -1.7240   -10.3280 ha         1 EL0       0.136000
     64 H23          9.2550    -4.1520   -13.2970 h1         1 EL0       0.065700
     65 H24         10.8960    -1.7580   -12.8700 h1         1 EL0       0.069200
     66 H25         11.1100    -3.0880   -14.0170 h1         1 EL0       0.069200
     67 H26         10.0930    -4.0370   -10.3610 hc         1 EL0       0.079200
     68 H27          9.4970    -5.4080   -11.2920 hc         1 EL0       0.079200
     69 H28         11.5710    -5.4400   -12.6980 h1         1 EL0       0.061700
     70 H29         12.1310    -5.2780   -11.0100 h1         1 EL0       0.061700
     71 H30         13.8620    -5.2620   -13.4690 h1         1 EL0       0.101033
     72 H31         13.2920    -4.0030   -14.6370 h1         1 EL0       0.101033
     73 H32         15.0260    -4.0540   -14.1350 h1         1 EL0       0.101033
@<TRIPOS>BOND
     1     1     2 1   
     2     1    42 1   
     3     1    43 1   
     4     1    44 1   
     5     2     3 1   
     6     3     4 ar  
     7     3     7 ar  
     8     4     5 1   
     9     4     6 ar  
    10     6     9 ar  
    11     6    45 1   
    12     7     8 ar  
    13     7    46 1   
    14     8     9 ar  
    15     8    47 1   
    16     9    10 1   
    17    10    11 1   
    18    10    16 1   
    19    11    12 2   
    20    11    13 1   
    21    13    14 1   
    22    13    48 1   
    23    13    49 1   
    24    14    15 1   
    25    14    50 1   
    26    14    51 1   
    27    15    16 1   
    28    15    52 1   
    29    15    53 1   
    30    16    17 1   
    31    16    54 1   
    32    17    18 2   
    33    17    32 1   
    34    18    19 1   
    35    19    20 ar  
    36    19    31 ar  
    37    20    21 ar  
    38    20    55 1   
    39    21    22 1   
    40    21    29 ar  
    41    22    23 2   
    42    22    27 1   
    43    23    24 1   
    44    23    25 1   
    45    24    56 1   
    46    24    57 1   
    47    24    58 1   
    48    25    26 1   
    49    26    27 2   
    50    27    28 1   
    51    28    59 1   
    52    28    60 1   
    53    28    61 1   
    54    29    30 ar  
    55    29    62 1   
    56    30    31 ar  
    57    30    63 1   
    58    31    32 1   
    59    32    33 1   
    60    33    34 1   
    61    33    35 1   
    62    33    64 1   
    63    34    37 1   
    64    34    65 1   
    65    34    66 1   
    66    35    36 1   
    67    35    67 1   
    68    35    68 1   
    69    36    37 1   
    70    36    69 1   
    71    36    70 1   
    72    37    38 1   
    73    38    39 2   
    74    38    40 2   
    75    38    41 1   
    76    41    71 1   
    77    41    72 1   
    78    41    73 1   
@<TRIPOS>SUBSTRUCTURE
     1 EL0         1 TEMP              0 ****  ****    0 ROOT
