@<TRIPOS>MOLECULE
EL0
   73    78     1     0     0
SMALL
abcg2


@<TRIPOS>ATOM
      1 CBO          8.7940    -8.6610    -9.0890 c3         1 EL0       0.146900
      2 OBN          8.1050    -7.4490    -8.8420 os         1 EL0      -0.321100
      3 CBJ          7.5580    -6.8010    -9.8750 ca         1 EL0       0.150100
      4 CBK          6.9690    -5.5600    -9.6070 ca         1 EL0       0.077000
      5 CL           6.9870    -4.9590    -7.9870 cl         1 EL0      -0.173000
      6 CBL          6.3860    -4.8080   -10.6080 ca         1 EL0      -0.046000
      7 CBI          7.5400    -7.2640   -11.1890 ca         1 EL0      -0.202000
      8 CBH          6.9640    -6.5040   -12.1970 ca         1 EL0      -0.073000
      9 CBG          6.3860    -5.2770   -11.9170 ca         1 EL0      -0.087000
     10 NBA          5.8180    -4.4990   -12.9640 n          1 EL0      -0.246400
     11 CAZ          4.5210    -4.7450   -13.3020 c          1 EL0       0.581000
     12 OBF          3.8310    -5.4940   -12.6320 o          1 EL0      -0.537000
     13 CAY          3.9820    -4.0670   -14.5360 c6         1 EL0      -0.158400
     14 CAX          5.0670    -3.6510   -15.5130 c6         1 EL0      -0.073400
     15 CAW          6.0660    -2.7900   -14.7670 c6         1 EL0      -0.087400
     16 CAR          6.7400    -3.5870   -13.6530 c6         1 EL0       0.131400
     17 CAO          7.3310    -2.6460   -12.6370 cc         1 EL0       0.389800
     18 NAP          6.6070    -1.7360   -12.0480 nd         1 EL0      -0.560100
     19 CAL          7.4470    -1.1150   -11.1640 ca         1 EL0       0.064400
     20 CAM          7.1800    -0.0870   -10.2640 ca         1 EL0      -0.046000
     21 CAH          8.2110     0.3760    -9.4580 ca         1 EL0      -0.016000
     22 CAA          7.9670     1.4600    -8.5020 cc         1 EL0      -0.175000
     23 CAE          7.2600     2.6070    -8.6920 cd         1 EL0       0.199300
     24 CAF          6.5550     3.1820    -9.8610 c3         1 EL0      -0.139400
     25 OAD          7.2430     3.3070    -7.5560 os         1 EL0      -0.072700
     26 NAC          7.9360     2.6410    -6.5880 nd         1 EL0      -0.367300
     27 CAB          8.3740     1.5460    -7.1360 cc         1 EL0       0.292300
     28 CAG          9.1680     0.5690    -6.3440 c3         1 EL0      -0.134400
     29 CAI          9.4920    -0.2030    -9.5620 ca         1 EL0      -0.079000
     30 CAJ          9.7720    -1.2340   -10.4380 ca         1 EL0      -0.108000
     31 CAK          8.7260    -1.6830   -11.2400 ca         1 EL0      -0.076200
     32 NAN          8.6280    -2.6640   -12.2020 na         1 EL0      -0.170600
     33 CAQ          9.6780    -3.5950   -12.5630 c5         1 EL0       0.090300
     34 CAV         10.9970    -2.9080   -12.9880 c5         1 EL0       0.186800
     35 CAS         10.0540    -4.5500   -11.4200 c5         1 EL0      -0.100400
     36 CAT         11.5370    -4.7910   -11.6150 c5         1 EL0       0.199800
     37 NAU         11.9850    -3.4730   -12.0680 n3         1 EL0      -0.742500
     38 SBB         13.5860    -3.2030   -12.3250 s6         1 EL0       1.208100
     39 OBC         14.2950    -3.8230   -11.2170 o          1 EL0      -0.525000
     40 OBD         13.7410    -1.7780   -12.5700 o          1 EL0      -0.525000
     41 CBE         14.0290    -4.0710   -13.8160 c3         1 EL0      -0.383100
     42 H1           9.1910    -8.9870    -8.1310 h1         1 EL0       0.044033
     43 H2           8.1290    -9.4360    -9.4770 h1         1 EL0       0.044033
     44 H3           9.6220    -8.5200    -9.7870 h1         1 EL0       0.044033
     45 H4           5.9320    -3.8550   -10.3720 ha         1 EL0       0.154000
     46 H5           7.9830    -8.2170   -11.4450 ha         1 EL0       0.121000
     47 H6           6.9690    -6.8780   -13.2130 ha         1 EL0       0.118000
     48 H7           3.4180    -3.1860   -14.2120 hc         1 EL0       0.078200
     49 H8           3.2610    -4.7480   -14.9880 hc         1 EL0       0.078200
     50 H9           4.6330    -3.0940   -16.3430 hc         1 EL0       0.050700
     51 H10          5.5560    -4.5310   -15.9400 hc         1 EL0       0.050700
     52 H11          6.8490    -2.4100   -15.4240 hc         1 EL0       0.068200
     53 H12          5.5500    -1.9250   -14.3460 hc         1 EL0       0.068200
     54 H13          7.5220    -4.2000   -14.1060 h1         1 EL0       0.044700
     55 H14          6.1790     0.3200   -10.1870 ha         1 EL0       0.131000
     56 H15          6.7160     4.2580    -9.9270 hc         1 EL0       0.064367
     57 H16          6.9140     2.7230   -10.7790 hc         1 EL0       0.064367
     58 H17          5.4790     3.0090    -9.8000 hc         1 EL0       0.064367
     59 H18          9.1290     0.8110    -5.2840 hc         1 EL0       0.057367
     60 H19          8.7860    -0.4420    -6.4840 hc         1 EL0       0.057367
     61 H20         10.2140     0.5690    -6.6510 hc         1 EL0       0.057367
     62 H21         10.2950     0.1770    -8.9440 ha         1 EL0       0.121000
     63 H22         10.7660    -1.6590   -10.4830 ha         1 EL0       0.136000
     64 H23          9.3150    -4.1740   -13.4080 h1         1 EL0       0.065700
     65 H24         10.9600    -1.8230   -12.9020 h1         1 EL0       0.069200
     66 H25         11.2100    -3.1530   -14.0320 h1         1 EL0       0.069200
     67 H26          9.8720    -4.0850   -10.4500 hc         1 EL0       0.079200
     68 H27          9.4810    -5.4720   -11.4610 hc         1 EL0       0.079200
     69 H28         11.7160    -5.5670   -12.3690 h1         1 EL0       0.061700
     70 H29         12.0380    -5.0780   -10.6950 h1         1 EL0       0.061700
     71 H30         13.8170    -5.1310   -13.7000 h1         1 EL0       0.101033
     72 H31         13.4760    -3.6650   -14.6600 h1         1 EL0       0.101033
     73 H32         15.0960    -3.9250   -13.9760 h1         1 EL0       0.101033
@<TRIPOS>BOND
     1     1     2 1   
     2     1    42 1   
     3     1    43 1   
     4     1    44 1   
     5     2     3 1   
     6     3     4 ar  
     7     3     7 ar  
     8     4     5 1   
     9     4     6 ar  
    10     6     9 ar  
    11     6    45 1   
    12     7     8 ar  
    13     7    46 1   
    14     8     9 ar  
    15     8    47 1   
    16     9    10 1   
    17    10    11 1   
    18    10    16 1   
    19    11    12 2   
    20    11    13 1   
    21    13    14 1   
    22    13    48 1   
    23    13    49 1   
    24    14    15 1   
    25    14    50 1   
    26    14    51 1   
    27    15    16 1   
    28    15    52 1   
    29    15    53 1   
    30    16    17 1   
    31    16    54 1   
    32    17    18 2   
    33    17    32 1   
    34    18    19 1   
    35    19    20 ar  
    36    19    31 ar  
    37    20    21 ar  
    38    20    55 1   
    39    21    22 1   
    40    21    29 ar  
    41    22    23 2   
    42    22    27 1   
    43    23    24 1   
    44    23    25 1   
    45    24    56 1   
    46    24    57 1   
    47    24    58 1   
    48    25    26 1   
    49    26    27 2   
    50    27    28 1   
    51    28    59 1   
    52    28    60 1   
    53    28    61 1   
    54    29    30 ar  
    55    29    62 1   
    56    30    31 ar  
    57    30    63 1   
    58    31    32 1   
    59    32    33 1   
    60    33    34 1   
    61    33    35 1   
    62    33    64 1   
    63    34    37 1   
    64    34    65 1   
    65    34    66 1   
    66    35    36 1   
    67    35    67 1   
    68    35    68 1   
    69    36    37 1   
    70    36    69 1   
    71    36    70 1   
    72    37    38 1   
    73    38    39 2   
    74    38    40 2   
    75    38    41 1   
    76    41    71 1   
    77    41    72 1   
    78    41    73 1   
@<TRIPOS>SUBSTRUCTURE
     1 EL0         1 TEMP              0 ****  ****    0 ROOT
