@<TRIPOS>MOLECULE
EL1
   59    62     1     0     0
SMALL
No Charge or Current Charge


@<TRIPOS>ATOM
      1 C01         -0.7820     5.1420    -3.0960 c3         1 EL1       0.094300
      2 N05         -1.1830     3.8800    -2.4680 ns         1 EL1      -0.506900
      3 C07         -0.7060     3.4260    -1.2570 c          1 EL1       0.620700
      4 O08          0.1200     4.0810    -0.6360 o          1 EL1      -0.580100
      5 C09         -1.2260     2.0740    -0.8050 ca         1 EL1      -0.181600
      6 C10         -1.7900     1.1780    -1.7470 ca         1 EL1      -0.051000
      7 C12         -2.2770    -0.0760    -1.3480 ca         1 EL1      -0.158000
      8 C14         -2.2410    -0.4770     0.0030 cp         1 EL1       0.005000
      9 C15         -1.6690     0.4090     0.9390 ca         1 EL1      -0.205000
     10 C17         -1.1450     1.6610     0.5500 ca         1 EL1       0.188100
     11 O18         -0.6220     2.5130     1.5050 os         1 EL1      -0.319100
     12 C19          0.4510     1.8620     2.2440 c5         1 EL1       0.159300
     13 C21          1.0990     2.9250     3.1540 c5         1 EL1      -0.095400
     14 C24          2.4610     2.2570     3.4680 c5         1 EL1       0.103000
     15 N27          2.8140     1.6500     2.1640 n          1 EL1      -0.415800
     16 C28          1.6290     1.5110     1.2850 c5         1 EL1       0.065000
     17 C31          4.1200     1.1500     1.9170 c          1 EL1       0.646700
     18 O32          4.9350     1.1480     2.8310 o          1 EL1      -0.594100
     19 C33          4.5010     0.6400     0.5660 cc         1 EL1      -0.280600
     20 C34          5.7400     0.0830     0.3230 cd         1 EL1      -0.071000
     21 C36          5.9470    -0.3030    -1.0290 cd         1 EL1      -0.105000
     22 C38          4.8740    -0.0320    -1.8330 cc         1 EL1      -0.173900
     23 Br           4.7420    -0.3820    -3.6810 br         1 EL1      -0.028100
     24 S40          3.5650     0.7200    -0.9330 ss         1 EL1       0.276000
     25 C41         -2.7680    -1.8060     0.4390 cp         1 EL1      -0.076000
     26 C42         -1.9210    -2.6740     1.1720 ca         1 EL1      -0.088000
     27 C44         -2.3680    -3.9330     1.6000 ca         1 EL1      -0.105000
     28 C46         -3.6740    -4.3470     1.3030 ca         1 EL1      -0.091000
     29 C48         -4.5350    -3.4970     0.5890 ca         1 EL1      -0.078000
     30 C50         -4.1020    -2.2230     0.1620 ca         1 EL1       0.252000
     31 N51         -4.9620    -1.3540    -0.5170 nu         1 EL1      -0.881100
     32 S53         -6.5760    -1.0800    -0.2510 s6         1 EL1       1.191100
     33 C54         -6.7010    -0.7650     1.4960 c3         1 EL1      -0.381100
     34 O58         -6.8670     0.1580    -0.9740 o          1 EL1      -0.526000
     35 O59         -7.2810    -2.3200    -0.5820 o          1 EL1      -0.526000
     36 H1          -1.3130     5.2630    -4.0480 h1         1 EL1       0.042033
     37 H2          -1.0320     5.9810    -2.4330 h1         1 EL1       0.042033
     38 H3           0.3000     5.1340    -3.2830 h1         1 EL1       0.042033
     39 H4          -1.8820     3.3120    -2.9290 hn         1 EL1       0.317500
     40 H5          -1.8360     1.4270    -2.8050 ha         1 EL1       0.127000
     41 H6          -2.6820    -0.7510    -2.0980 ha         1 EL1       0.129000
     42 H7          -1.6650     0.1190     1.9850 ha         1 EL1       0.127000
     43 H8           0.0970     0.9990     2.8230 h1         1 EL1       0.054700
     44 H9           1.2370     3.8760     2.6270 hc         1 EL1       0.076200
     45 H10          0.5130     3.1250     4.0580 hc         1 EL1       0.076200
     46 H11          3.2070     2.9910     3.8030 h1         1 EL1       0.063700
     47 H12          2.3640     1.4840     4.2420 h1         1 EL1       0.063700
     48 H13          1.5170     0.4900     0.8960 h1         1 EL1       0.065200
     49 H14          1.6810     2.2200     0.4490 h1         1 EL1       0.065200
     50 H15          6.4980    -0.0530     1.0910 ha         1 EL1       0.158000
     51 H16          6.8650    -0.7610    -1.3880 ha         1 EL1       0.151000
     52 H17         -0.9030    -2.3660     1.3990 ha         1 EL1       0.121000
     53 H18         -1.7000    -4.5880     2.1560 ha         1 EL1       0.123000
     54 H19         -4.0210    -5.3260     1.6270 ha         1 EL1       0.126000
     55 H20         -5.5380    -3.8440     0.3680 ha         1 EL1       0.145000
     56 H21         -4.5870    -0.4370    -0.7190 hn         1 EL1       0.493000
     57 H22         -7.7510    -0.5450     1.7150 h1         1 EL1       0.102367
     58 H23         -6.3670    -1.6650     2.0210 h1         1 EL1       0.102367
     59 H24         -6.0590     0.0910     1.7260 h1         1 EL1       0.102367
@<TRIPOS>BOND
     1     1     2 1   
     2     1    36 1   
     3     1    37 1   
     4     1    38 1   
     5     2     3 1   
     6     2    39 1   
     7     3     4 2   
     8     3     5 1   
     9     5     6 ar  
    10     5    10 ar  
    11     6     7 ar  
    12     6    40 1   
    13     7     8 ar  
    14     7    41 1   
    15     8     9 ar  
    16     8    25 1   
    17     9    10 ar  
    18     9    42 1   
    19    10    11 1   
    20    11    12 1   
    21    12    13 1   
    22    12    16 1   
    23    12    43 1   
    24    13    14 1   
    25    13    44 1   
    26    13    45 1   
    27    14    15 1   
    28    14    46 1   
    29    14    47 1   
    30    15    16 1   
    31    15    17 1   
    32    16    48 1   
    33    16    49 1   
    34    17    18 2   
    35    17    19 1   
    36    19    20 2   
    37    19    24 1   
    38    20    21 1   
    39    20    50 1   
    40    21    22 2   
    41    21    51 1   
    42    22    23 1   
    43    22    24 1   
    44    25    26 ar  
    45    25    30 ar  
    46    26    27 ar  
    47    26    52 1   
    48    27    28 ar  
    49    27    53 1   
    50    28    29 ar  
    51    28    54 1   
    52    29    30 ar  
    53    29    55 1   
    54    30    31 1   
    55    31    32 1   
    56    31    56 1   
    57    32    33 1   
    58    32    34 2   
    59    32    35 2   
    60    33    57 1   
    61    33    58 1   
    62    33    59 1   
@<TRIPOS>SUBSTRUCTURE
     1 EL1         1 TEMP              0 ****  ****    0 ROOT
