@<TRIPOS>MOLECULE
EL1
   59    62     1     0     0
SMALL
abcg2


@<TRIPOS>ATOM
      1 C01         -2.4420     5.9650    -2.4130 c3         1 EL1       0.094300
      2 N05         -2.5020     4.5810    -2.0060 ns         1 EL1      -0.506900
      3 C07         -1.4020     3.8560    -1.7630 c          1 EL1       0.620700
      4 O08         -0.2700     4.3050    -1.8580 o          1 EL1      -0.580100
      5 C09         -1.6670     2.4260    -1.4030 ca         1 EL1      -0.181600
      6 C10         -2.4050     1.6200    -2.2570 ca         1 EL1      -0.051000
      7 C12         -2.5980     0.2720    -1.9890 ca         1 EL1      -0.158000
      8 C14         -2.0760    -0.2790    -0.8250 cp         1 EL1       0.005000
      9 C15         -1.3480     0.5260     0.0490 ca         1 EL1      -0.205000
     10 C17         -1.1210     1.8670    -0.2400 ca         1 EL1       0.188100
     11 O18         -0.4310     2.7010     0.5570 os         1 EL1      -0.319100
     12 C19          0.3130     2.1900     1.6400 c5         1 EL1       0.159300
     13 C21          0.9790     3.3340     2.3820 c5         1 EL1      -0.095400
     14 C24          2.0890     2.6390     3.1520 c5         1 EL1       0.103000
     15 N27          2.4600     1.5220     2.2810 n          1 EL1      -0.415800
     16 C28          1.5000     1.3180     1.2100 c5         1 EL1       0.065000
     17 C31          3.4990     0.7400     2.6200 c          1 EL1       0.646700
     18 O32          4.1250     0.9300     3.6570 o          1 EL1      -0.594100
     19 C33          3.9240    -0.3770     1.7380 cc         1 EL1      -0.280600
     20 C34          4.7780    -1.3570     2.1670 cd         1 EL1      -0.071000
     21 C36          5.1250    -2.2930     1.1670 cd         1 EL1      -0.105000
     22 C38          4.5360    -1.9890    -0.0230 cc         1 EL1      -0.173900
     23 BR           4.6970    -2.9150    -1.6240 br         1 EL1      -0.028100
     24 S40          3.5510    -0.5940     0.0620 ss         1 EL1       0.276000
     25 C41         -2.2590    -1.7090    -0.4910 cp         1 EL1      -0.076000
     26 C42         -1.1350    -2.5110    -0.2930 ca         1 EL1      -0.088000
     27 C44         -1.2580    -3.8490     0.0420 ca         1 EL1      -0.105000
     28 C46         -2.5200    -4.4120     0.1750 ca         1 EL1      -0.091000
     29 C48         -3.6480    -3.6340    -0.0270 ca         1 EL1      -0.078000
     30 C50         -3.5280    -2.2860    -0.3500 ca         1 EL1       0.252000
     31 N51         -4.7160    -1.5280    -0.5190 nu         1 EL1      -0.881100
     32 S53         -5.5770    -1.0310     0.8170 s6         1 EL1       1.191100
     33 C54         -4.5490     0.1470     1.6620 c3         1 EL1      -0.381100
     34 O58         -6.7420    -0.3410     0.2890 o          1 EL1      -0.526000
     35 O59         -5.7480    -2.1860     1.6800 o          1 EL1      -0.526000
     36 H1          -3.4470     6.2950    -2.6590 h1         1 EL1       0.042033
     37 H2          -2.0530     6.6060    -1.6190 h1         1 EL1       0.042033
     38 H3          -1.8120     6.0900    -3.2920 h1         1 EL1       0.042033
     39 H4          -3.4060     4.1730    -1.8310 hn         1 EL1       0.317500
     40 H5          -2.8110     2.0400    -3.1680 ha         1 EL1       0.127000
     41 H6          -3.1240    -0.3440    -2.7080 ha         1 EL1       0.129000
     42 H7          -0.9860     0.0860     0.9680 ha         1 EL1       0.127000
     43 H8          -0.3340     1.6290     2.3250 h1         1 EL1       0.054700
     44 H9           1.3990     4.0390     1.6610 hc         1 EL1       0.076200
     45 H10          0.2960     3.8750     3.0360 hc         1 EL1       0.076200
     46 H11          2.9400     3.2940     3.3330 h1         1 EL1       0.063700
     47 H12          1.7380     2.2690     4.1180 h1         1 EL1       0.063700
     48 H13          1.2270     0.2680     1.1170 h1         1 EL1       0.065200
     49 H14          1.8790     1.6720     0.2440 h1         1 EL1       0.065200
     50 H15          5.1520    -1.4050     3.1790 ha         1 EL1       0.158000
     51 H16          5.7780    -3.1390     1.3220 ha         1 EL1       0.151000
     52 H17         -0.1510    -2.0750    -0.4130 ha         1 EL1       0.121000
     53 H18         -0.3720    -4.4520     0.1890 ha         1 EL1       0.123000
     54 H19         -2.6280    -5.4590     0.4230 ha         1 EL1       0.126000
     55 H20         -4.6330    -4.0720     0.0590 ha         1 EL1       0.145000
     56 H21         -4.6830    -0.8010    -1.2260 hn         1 EL1       0.493000
     57 H22         -5.0780     0.4640     2.5590 h1         1 EL1       0.102367
     58 H23         -3.6090    -0.3250     1.9390 h1         1 EL1       0.102367
     59 H24         -4.3700     1.0000     1.0120 h1         1 EL1       0.102367
@<TRIPOS>BOND
     1     1     2 1   
     2     1    36 1   
     3     1    37 1   
     4     1    38 1   
     5     2     3 1   
     6     2    39 1   
     7     3     4 2   
     8     3     5 1   
     9     5     6 ar  
    10     5    10 ar  
    11     6     7 ar  
    12     6    40 1   
    13     7     8 ar  
    14     7    41 1   
    15     8     9 ar  
    16     8    25 1   
    17     9    10 ar  
    18     9    42 1   
    19    10    11 1   
    20    11    12 1   
    21    12    13 1   
    22    12    16 1   
    23    12    43 1   
    24    13    14 1   
    25    13    44 1   
    26    13    45 1   
    27    14    15 1   
    28    14    46 1   
    29    14    47 1   
    30    15    16 1   
    31    15    17 1   
    32    16    48 1   
    33    16    49 1   
    34    17    18 2   
    35    17    19 1   
    36    19    20 2   
    37    19    24 1   
    38    20    21 1   
    39    20    50 1   
    40    21    22 2   
    41    21    51 1   
    42    22    23 1   
    43    22    24 1   
    44    25    26 ar  
    45    25    30 ar  
    46    26    27 ar  
    47    26    52 1   
    48    27    28 ar  
    49    27    53 1   
    50    28    29 ar  
    51    28    54 1   
    52    29    30 ar  
    53    29    55 1   
    54    30    31 1   
    55    31    32 1   
    56    31    56 1   
    57    32    33 1   
    58    32    34 2   
    59    32    35 2   
    60    33    57 1   
    61    33    58 1   
    62    33    59 1   
@<TRIPOS>SUBSTRUCTURE
     1 EL1         1 TEMP              0 ****  ****    0 ROOT
