@<TRIPOS>MOLECULE
EL2
   58    62     1     0     0
SMALL
abcg2


@<TRIPOS>ATOM
      1 C01        -16.1580    35.4780    23.0380 c3         1 EL2       0.097300
      2 N01        -15.0470    36.3840    23.2620 ns         1 EL2      -0.509900
      3 C02        -13.9840    36.4320    22.4370 c          1 EL2       0.609700
      4 O01        -13.8970    35.6940    21.4500 o          1 EL2      -0.606100
      5 C03        -12.9060    37.4150    22.7740 ca         1 EL2      -0.178600
      6 C04        -13.1490    38.5640    23.5550 ca         1 EL2      -0.076000
      7 C05        -12.1500    39.4740    23.8570 ca         1 EL2      -0.125000
      8 C06        -10.8720    39.2120    23.3620 ca         1 EL2      -0.054200
      9 N02         -9.6580    39.8690    23.4620 na         1 EL2      -0.182600
     10 C07         -9.4210    41.1890    24.0620 c6         1 EL2       0.095300
     11 C08         -9.5950    41.1680    25.5800 c6         1 EL2      -0.091400
     12 C09         -9.2830    42.5470    26.1610 c6         1 EL2      -0.071400
     13 C10        -10.1460    43.6340    25.5220 c6         1 EL2      -0.091400
     14 C11         -9.9870    43.6450    24.0020 c6         1 EL2       0.112700
     15 C12        -10.2840    42.2660    23.3990 c6         1 EL2      -0.111400
     16 N03        -10.8590    44.6540    23.4180 ns         1 EL2      -0.493900
     17 C13        -10.5070    45.4510    22.3920 c          1 EL2       0.639700
     18 O1          -9.3890    45.4290    21.8640 o          1 EL2      -0.608100
     19 C14        -11.5400    46.3950    21.9120 cc         1 EL2      -0.292600
     20 C15        -12.8220    46.6310    22.3390 cd         1 EL2      -0.103000
     21 C16        -13.4850    47.6400    21.5980 cd         1 EL2      -0.106000
     22 C17        -12.6790    48.1490    20.6170 cc         1 EL2      -0.177900
     23 BR         -13.1330    49.5060    19.3930 br         1 EL2      -0.036100
     24 S          -11.1220    47.4190    20.5780 ss         1 EL2       0.373000
     25 C18         -8.7460    39.1090    22.7560 cc         1 EL2       0.358800
     26 N04         -9.2820    38.0380    22.2120 nd         1 EL2      -0.525100
     27 C19        -10.6150    38.0680    22.5730 ca         1 EL2       0.053400
     28 C20        -11.6330    37.1690    22.2720 ca         1 EL2       0.019000
     29 C21         -7.3060    39.4240    22.6560 ca         1 EL2       0.333700
     30 C22         -6.5490    39.7180    23.7900 ca         1 EL2      -0.151000
     31 C23         -5.1900    39.9590    23.6440 ca         1 EL2      -0.074000
     32 C24         -4.6320    39.8930    22.3750 ca         1 EL2      -0.152000
     33 C1          -5.4620    39.5810    21.3040 ca         1 EL2       0.339900
     34 N1          -6.7690    39.3500    21.4300 nb         1 EL2      -0.623000
     35 H1         -16.9210    35.6780    23.7860 h1         1 EL2       0.040700
     36 H2         -16.5830    35.6300    22.0450 h1         1 EL2       0.040700
     37 H3         -15.8430    34.4350    23.1190 h1         1 EL2       0.040700
     38 H4         -15.0410    36.9240    24.1100 hn         1 EL2       0.313500
     39 H5         -14.1470    38.7720    23.9170 ha         1 EL2       0.107000
     40 H6         -12.3770    40.3460    24.4510 ha         1 EL2       0.116000
     41 H7          -8.3820    41.4290    23.8430 h1         1 EL2       0.073700
     42 H8         -10.6200    40.8870    25.8320 hc         1 EL2       0.054700
     43 H9          -8.9370    40.4100    26.0110 hc         1 EL2       0.054700
     44 H10         -8.2250    42.7780    25.9940 hc         1 EL2       0.049700
     45 H11         -9.4370    42.5370    27.2410 hc         1 EL2       0.049700
     46 H12         -9.8820    44.6170    25.9190 hc         1 EL2       0.049200
     47 H13        -11.1990    43.4570    25.7670 hc         1 EL2       0.049200
     48 H14         -8.9650    43.9310    23.7490 h1         1 EL2       0.086700
     49 H15        -11.3440    42.0490    23.5400 hc         1 EL2       0.064700
     50 H16        -10.0880    42.2830    22.3250 hc         1 EL2       0.064700
     51 H17        -11.8060    44.6910    23.7610 hn         1 EL2       0.313500
     52 H18        -13.2930    46.1080    23.1610 ha         1 EL2       0.129000
     53 H19        -14.4960    47.9710    21.7790 ha         1 EL2       0.148000
     54 H20        -11.4440    36.2930    21.6670 ha         1 EL2       0.155000
     55 H21         -7.0090    39.7370    24.7680 ha         1 EL2       0.125000
     56 H22         -4.5790    40.1850    24.5080 ha         1 EL2       0.123000
     57 H23         -3.5780    40.0730    22.2130 ha         1 EL2       0.128000
     58 H24         -5.0590    39.5170    20.2990 h4         1 EL2       0.028100
@<TRIPOS>BOND
     1     1     2 1   
     2     1    35 1   
     3     1    36 1   
     4     1    37 1   
     5     2     3 1   
     6     2    38 1   
     7     3     4 2   
     8     3     5 1   
     9     5     6 ar  
    10     5    28 ar  
    11     6     7 ar  
    12     6    39 1   
    13     7     8 ar  
    14     7    40 1   
    15     8     9 1   
    16     8    27 ar  
    17     9    10 1   
    18     9    25 1   
    19    10    11 1   
    20    10    15 1   
    21    10    41 1   
    22    11    12 1   
    23    11    42 1   
    24    11    43 1   
    25    12    13 1   
    26    12    44 1   
    27    12    45 1   
    28    13    14 1   
    29    13    46 1   
    30    13    47 1   
    31    14    15 1   
    32    14    16 1   
    33    14    48 1   
    34    15    49 1   
    35    15    50 1   
    36    16    17 1   
    37    16    51 1   
    38    17    18 2   
    39    17    19 1   
    40    19    20 2   
    41    19    24 1   
    42    20    21 1   
    43    20    52 1   
    44    21    22 2   
    45    21    53 1   
    46    22    23 1   
    47    22    24 1   
    48    25    26 2   
    49    25    29 1   
    50    26    27 1   
    51    27    28 ar  
    52    28    54 1   
    53    29    30 ar  
    54    29    34 ar  
    55    30    31 ar  
    56    30    55 1   
    57    31    32 ar  
    58    31    56 1   
    59    32    33 ar  
    60    32    57 1   
    61    33    34 ar  
    62    33    58 1   
@<TRIPOS>SUBSTRUCTURE
     1 EL2         1 TEMP              0 ****  ****    0 ROOT
