@<TRIPOS>MOLECULE
EL2
   58    62     1     0     0
SMALL
No Charge or Current Charge


@<TRIPOS>ATOM
      1 C01        -16.4090    35.8050    22.8430 c3         1 EL2       0.097300
      2 N01        -15.2260    36.6440    23.0460 ns         1 EL2      -0.509900
      3 C02        -13.9780    36.3670    22.5330 c          1 EL2       0.609700
      4 O01        -13.7820    35.3680    21.8540 o          1 EL2      -0.606100
      5 C03        -12.8770    37.3540    22.8500 ca         1 EL2      -0.178600
      6 C04        -13.1000    38.5160    23.6420 ca         1 EL2      -0.076000
      7 C05        -12.0500    39.4150    23.9180 ca         1 EL2      -0.125000
      8 C06        -10.7800    39.1360    23.3870 ca         1 EL2      -0.054200
      9 N02         -9.5790    39.7980    23.4740 na         1 EL2      -0.182600
     10 C07         -9.3760    41.1460    24.0760 c6         1 EL2       0.095300
     11 C08         -9.5630    41.1380    25.6170 c6         1 EL2      -0.091400
     12 C09         -9.2950    42.5430    26.2110 c6         1 EL2      -0.071400
     13 C10        -10.1710    43.6180    25.5190 c6         1 EL2      -0.091400
     14 C11         -9.9370    43.6410    23.9860 c6         1 EL2       0.112700
     15 C12        -10.2360    42.2420    23.3890 c6         1 EL2      -0.111400
     16 N03        -10.7900    44.6570    23.3620 ns         1 EL2      -0.493900
     17 C13        -10.5570    45.2670    22.1530 c          1 EL2       0.639700
     18 O1          -9.5700    45.0190    21.4780 o          1 EL2      -0.608100
     19 C14        -11.5930    46.2360    21.7560 cc         1 EL2      -0.292600
     20 C15        -12.7340    46.5730    22.4570 cd         1 EL2      -0.103000
     21 C16        -13.5270    47.5460    21.7900 cd         1 EL2      -0.106000
     22 C17        -12.9940    47.9450    20.5910 cc         1 EL2      -0.177900
     23 Br         -13.7380    49.2120    19.4090 br         1 EL2      -0.036100
     24 S          -11.4750    47.1230    20.2410 ss         1 EL2       0.373000
     25 C18         -8.6380    39.0330    22.7630 cc         1 EL2       0.358800
     26 N04         -9.2170    37.9340    22.2280 nd         1 EL2      -0.525100
     27 C19        -10.5460    38.0200    22.6300 ca         1 EL2       0.053400
     28 C20        -11.5750    37.1120    22.3430 ca         1 EL2       0.019000
     29 C21         -7.2060    39.3830    22.6360 ca         1 EL2       0.333700
     30 C22         -6.4300    39.5890    23.7980 ca         1 EL2      -0.151000
     31 C23         -5.0740    39.9340    23.6820 ca         1 EL2      -0.074000
     32 C24         -4.5330    40.0600    22.3940 ca         1 EL2      -0.152000
     33 C1          -5.3590    39.8360    21.2810 ca         1 EL2       0.339900
     34 N1          -6.6660    39.5060    21.3900 nb         1 EL2      -0.623000
     35 H1         -17.2690    36.2530    23.3570 h1         1 EL2       0.040700
     36 H2         -16.6290    35.7280    21.7700 h1         1 EL2       0.040700
     37 H3         -16.2250    34.8020    23.2510 h1         1 EL2       0.040700
     38 H4         -15.3190    37.4870    23.5970 hn         1 EL2       0.313500
     39 H5         -14.0820    38.7370    24.0540 ha         1 EL2       0.107000
     40 H6         -12.2420    40.2910    24.5280 ha         1 EL2       0.116000
     41 H7          -8.3310    41.4300    23.8920 h1         1 EL2       0.073700
     42 H8         -10.5760    40.8190    25.8900 hc         1 EL2       0.054700
     43 H9          -8.8790    40.4100    26.0730 hc         1 EL2       0.054700
     44 H10         -8.2330    42.7990    26.0940 hc         1 EL2       0.049700
     45 H11         -9.4970    42.5360    27.2910 hc         1 EL2       0.049700
     46 H12         -9.9410    44.6050    25.9430 hc         1 EL2       0.049200
     47 H13        -11.2310    43.4240    25.7350 hc         1 EL2       0.049200
     48 H14         -8.8840    43.9000    23.7910 h1         1 EL2       0.086700
     49 H15        -11.3060    42.0270    23.4890 hc         1 EL2       0.064700
     50 H16        -10.0240    42.2480    22.3110 hc         1 EL2       0.064700
     51 H17        -11.6330    44.9350    23.8450 hn         1 EL2       0.313500
     52 H18        -13.0160    46.1540    23.4180 ha         1 EL2       0.129000
     53 H19        -14.4600    47.9340    22.1890 ha         1 EL2       0.148000
     54 H20        -11.3610    36.2340    21.7380 ha         1 EL2       0.155000
     55 H21         -6.8800    39.4750    24.7810 ha         1 EL2       0.125000
     56 H22         -4.4600    40.0970    24.5660 ha         1 EL2       0.123000
     57 H23         -3.4880    40.3240    22.2530 ha         1 EL2       0.128000
     58 H24         -4.9630    39.9250    20.2700 h4         1 EL2       0.028100
@<TRIPOS>BOND
     1     1     2 1   
     2     1    35 1   
     3     1    36 1   
     4     1    37 1   
     5     2     3 1   
     6     2    38 1   
     7     3     4 2   
     8     3     5 1   
     9     5     6 ar  
    10     5    28 ar  
    11     6     7 ar  
    12     6    39 1   
    13     7     8 ar  
    14     7    40 1   
    15     8     9 1   
    16     8    27 ar  
    17     9    10 1   
    18     9    25 1   
    19    10    11 1   
    20    10    15 1   
    21    10    41 1   
    22    11    12 1   
    23    11    42 1   
    24    11    43 1   
    25    12    13 1   
    26    12    44 1   
    27    12    45 1   
    28    13    14 1   
    29    13    46 1   
    30    13    47 1   
    31    14    15 1   
    32    14    16 1   
    33    14    48 1   
    34    15    49 1   
    35    15    50 1   
    36    16    17 1   
    37    16    51 1   
    38    17    18 2   
    39    17    19 1   
    40    19    20 2   
    41    19    24 1   
    42    20    21 1   
    43    20    52 1   
    44    21    22 2   
    45    21    53 1   
    46    22    23 1   
    47    22    24 1   
    48    25    26 2   
    49    25    29 1   
    50    26    27 1   
    51    27    28 ar  
    52    28    54 1   
    53    29    30 ar  
    54    29    34 ar  
    55    30    31 ar  
    56    30    55 1   
    57    31    32 ar  
    58    31    56 1   
    59    32    33 ar  
    60    32    57 1   
    61    33    34 ar  
    62    33    58 1   
@<TRIPOS>SUBSTRUCTURE
     1 EL2         1 TEMP              0 ****  ****    0 ROOT
