@<TRIPOS>MOLECULE
EL3
   39    41     1     0     0
SMALL
bcc


@<TRIPOS>ATOM
      1 CAI         -0.1450    -1.2670    -1.0420 c5         1 EL3      -0.065400
      2 CAO         -0.9730    -0.3980    -0.1080 c5         1 EL3      -0.018800
      3 CAH         -0.9480    -1.2380     1.1800 c5         1 EL3      -0.064400
      4 CAG          0.4800    -1.8250     1.1970 c5         1 EL3      -0.076400
      5 CAM          1.1010    -1.4800    -0.1780 c5         1 EL3      -0.055700
      6 CAN          1.9680    -0.1990    -0.1710 c6         1 EL3       0.004200
      7 CAC          3.0920    -0.3100     0.8690 c3         1 EL3      -0.080600
      8 CAD          2.6450    -0.0410    -1.5430 c3         1 EL3      -0.080600
      9 CAJ          1.0930     1.0140     0.1200 c2         1 EL3      -0.105400
     10 CAA          1.7810     2.3270     0.3690 c3         1 EL3      -0.047900
     11 CAK         -0.2360     0.9020     0.1490 c2         1 EL3      -0.114400
     12 CAE         -1.2480     2.0050     0.3790 c5         1 EL3      -0.037200
     13 CAF         -2.6120     1.3100     0.2800 c5         1 EL3      -0.075400
     14 CAL         -2.3490     0.0760    -0.5870 c5         1 EL3      -0.049700
     15 CAB         -3.4600    -0.9600    -0.5700 c3         1 EL3      -0.080100
     16 HAI         -0.6450    -2.2200    -1.2470 hc         1 EL3       0.047200
     17 HAIA         0.0520    -0.7890    -2.0030 hc         1 EL3       0.047200
     18 HAH         -1.1730    -0.6540     2.0750 hc         1 EL3       0.043700
     19 HAHA        -1.6880    -2.0410     1.1270 hc         1 EL3       0.043700
     20 HAG          1.0640    -1.4340     2.0290 hc         1 EL3       0.041200
     21 HAGA         0.4460    -2.9070     1.3300 hc         1 EL3       0.041200
     22 HAM          1.7220    -2.3040    -0.5430 hc         1 EL3       0.051700
     23 HAC          3.6550    -1.2360     0.7300 hc         1 EL3       0.032867
     24 HACA         3.7970     0.5160     0.7700 hc         1 EL3       0.032867
     25 HACB         2.7220    -0.2950     1.8950 hc         1 EL3       0.032867
     26 HAD          1.9230     0.0400    -2.3560 hc         1 EL3       0.032867
     27 HADA         3.2730     0.8510    -1.5780 hc         1 EL3       0.032867
     28 HADB         3.2930    -0.8960    -1.7510 hc         1 EL3       0.032867
     29 HAA          2.5610     2.5240    -0.3700 hc         1 EL3       0.036700
     30 HAAA         1.0860     3.1650     0.3410 hc         1 EL3       0.036700
     31 HAAB         2.2730     2.3440     1.3450 hc         1 EL3       0.036700
     32 HAE         -1.1110     2.5150     1.3350 hc         1 EL3       0.047700
     33 HAEA        -1.1510     2.7750    -0.3940 hc         1 EL3       0.047700
     34 HAF         -2.9540     0.9970     1.2710 hc         1 EL3       0.041700
     35 HAFA        -3.3870     1.9570    -0.1350 hc         1 EL3       0.041700
     36 HAL         -2.2210     0.4200    -1.6220 hc         1 EL3       0.048700
     37 HAB         -3.7130    -1.2690     0.4460 hc         1 EL3       0.033033
     38 HABA        -4.3690    -0.5640    -1.0260 hc         1 EL3       0.033033
     39 HABB        -3.1780    -1.8560    -1.1270 hc         1 EL3       0.033033
@<TRIPOS>BOND
     1     1     2 1   
     2     1     5 1   
     3     1    16 1   
     4     1    17 1   
     5     2     3 1   
     6     2    11 1   
     7     2    14 1   
     8     3     4 1   
     9     3    18 1   
    10     3    19 1   
    11     4     5 1   
    12     4    20 1   
    13     4    21 1   
    14     5     6 1   
    15     5    22 1   
    16     6     7 1   
    17     6     8 1   
    18     6     9 1   
    19     7    23 1   
    20     7    24 1   
    21     7    25 1   
    22     8    26 1   
    23     8    27 1   
    24     8    28 1   
    25     9    10 1   
    26     9    11 2   
    27    10    29 1   
    28    10    30 1   
    29    10    31 1   
    30    11    12 1   
    31    12    13 1   
    32    12    32 1   
    33    12    33 1   
    34    13    14 1   
    35    13    34 1   
    36    13    35 1   
    37    14    15 1   
    38    14    36 1   
    39    15    37 1   
    40    15    38 1   
    41    15    39 1   
@<TRIPOS>SUBSTRUCTURE
     1 EL3         1 TEMP              0 ****  ****    0 ROOT
