@<TRIPOS>MOLECULE
EL3
   39    41     1     0     0
SMALL
No Charge or Current Charge


@<TRIPOS>ATOM
      1 CAI         -0.1910    -1.2970    -1.0650 c5         1 EL3      -0.065400
      2 CAO         -0.9450    -0.3650    -0.0870 c5         1 EL3      -0.018800
      3 CAH         -0.9370    -1.1790     1.2440 c5         1 EL3      -0.064400
      4 CAG          0.4280    -1.9410     1.1610 c5         1 EL3      -0.076400
      5 CAM          1.0910    -1.4820    -0.1940 c5         1 EL3      -0.055700
      6 CAN          1.9910    -0.1810    -0.1370 c6         1 EL3       0.004200
      7 CAC          3.1240    -0.3220     0.9300 c3         1 EL3      -0.080600
      8 CAD          2.7020     0.0190    -1.5170 c3         1 EL3      -0.080600
      9 CAJ          1.1190     1.0680     0.1460 c2         1 EL3      -0.105400
     10 CAA          1.8390     2.3980     0.3630 c3         1 EL3      -0.047900
     11 CAK         -0.2220     0.9470     0.1290 c2         1 EL3      -0.114400
     12 CAE         -1.2720     2.0400     0.2710 c5         1 EL3      -0.037200
     13 CAF         -2.6380     1.2820     0.3260 c5         1 EL3      -0.075400
     14 CAL         -2.3700     0.0440    -0.5890 c5         1 EL3      -0.049700
     15 CAB         -3.4870    -1.0280    -0.5890 c3         1 EL3      -0.080100
     16 HAI         -0.7180    -2.2430    -1.2400 hc         1 EL3       0.047200
     17 HAIA        -0.0030    -0.8360    -2.0400 hc         1 EL3       0.047200
     18 HAH         -1.0000    -0.5370     2.1300 hc         1 EL3       0.043700
     19 HAHA        -1.7560    -1.9010     1.3120 hc         1 EL3       0.043700
     20 HAG          1.0540    -1.7560     2.0380 hc         1 EL3       0.041200
     21 HAGA         0.2500    -3.0220     1.1460 hc         1 EL3       0.041200
     22 HAM          1.7300    -2.2800    -0.5900 hc         1 EL3       0.051700
     23 HAC          3.6460    -1.2810     0.8310 hc         1 EL3       0.032867
     24 HACA         3.8790     0.4670     0.8350 hc         1 EL3       0.032867
     25 HACB         2.7290    -0.2600     1.9510 hc         1 EL3       0.032867
     26 HAD          1.9880     0.2610    -2.3120 hc         1 EL3       0.032867
     27 HADA         3.4370     0.8310    -1.4900 hc         1 EL3       0.032867
     28 HADB         3.2420    -0.8850    -1.8230 hc         1 EL3       0.032867
     29 HAA          2.4780     2.6600    -0.4870 hc         1 EL3       0.036700
     30 HAAA         1.1400     3.2310     0.4960 hc         1 EL3       0.036700
     31 HAAB         2.4670     2.3710     1.2610 hc         1 EL3       0.036700
     32 HAE         -1.1120     2.6520     1.1670 hc         1 EL3       0.047700
     33 HAEA        -1.2340     2.7130    -0.5930 hc         1 EL3       0.047700
     34 HAF         -2.8820     0.9780     1.3510 hc         1 EL3       0.041700
     35 HAFA        -3.4690     1.8980    -0.0350 hc         1 EL3       0.041700
     36 HAL         -2.2950     0.3820    -1.6300 hc         1 EL3       0.048700
     37 HAB         -3.7600    -1.3360     0.4270 hc         1 EL3       0.033033
     38 HABA        -4.3950    -0.6360    -1.0620 hc         1 EL3       0.033033
     39 HABB        -3.1830    -1.9200    -1.1480 hc         1 EL3       0.033033
@<TRIPOS>BOND
     1     1     2 1   
     2     1     5 1   
     3     1    16 1   
     4     1    17 1   
     5     2     3 1   
     6     2    11 1   
     7     2    14 1   
     8     3     4 1   
     9     3    18 1   
    10     3    19 1   
    11     4     5 1   
    12     4    20 1   
    13     4    21 1   
    14     5     6 1   
    15     5    22 1   
    16     6     7 1   
    17     6     8 1   
    18     6     9 1   
    19     7    23 1   
    20     7    24 1   
    21     7    25 1   
    22     8    26 1   
    23     8    27 1   
    24     8    28 1   
    25     9    10 1   
    26     9    11 2   
    27    10    29 1   
    28    10    30 1   
    29    10    31 1   
    30    11    12 1   
    31    12    13 1   
    32    12    32 1   
    33    12    33 1   
    34    13    14 1   
    35    13    34 1   
    36    13    35 1   
    37    14    15 1   
    38    14    36 1   
    39    15    37 1   
    40    15    38 1   
    41    15    39 1   
@<TRIPOS>SUBSTRUCTURE
     1 EL3         1 TEMP              0 ****  ****    0 ROOT
