@<TRIPOS>MOLECULE
EL5
   77    80     1     0     0
SMALL
bcc


@<TRIPOS>ATOM
      1 C1A          3.8000     0.3900     1.2430 c          1 EL5       0.709500
      2 C1B          0.3130     2.7030     0.3110 cc         1 EL5       0.481900
      3 O1B         -6.0010     3.2490    -2.2440 o          1 EL5      -0.842300
      4 C1C         -1.8370    -0.9060     0.9740 cc         1 EL5      -0.133100
      5 O1C         -6.7930    -2.5750     1.5420 o          1 EL5      -0.845300
      6 C1D          1.9340    -2.9970     0.0640 cc         1 EL5       0.009600
      7 C2A          4.9120     1.3150     0.7810 c5         1 EL5      -0.117500
      8 C2B         -0.8100     3.6220     0.1810 cc         1 EL5      -0.289800
      9 O2B         -6.0260     3.9570    -0.1330 o          1 EL5      -0.842300
     10 C2C         -2.5620    -2.0680     1.2810 cd         1 EL5      -0.043300
     11 O2C         -6.9670    -2.7800    -0.6690 o          1 EL5      -0.845300
     12 C2D          2.1030    -2.1540    -1.1160 cc         1 EL5       0.003800
     13 C3A          4.1800     2.5930     0.4480 cf         1 EL5      -0.086200
     14 C3B         -1.9310     2.8840     0.4050 cd         1 EL5      -0.009200
     15 C3C         -1.6540    -3.1360     1.2680 cd         1 EL5      -0.140300
     16 C3D          3.3920    -2.2750    -1.5390 cd         1 EL5      -0.190200
     17 C4A          2.7420     2.3040     0.5110 cf         1 EL5       0.058600
     18 C4B         -1.4720     1.5240     0.6360 cd         1 EL5       0.008600
     19 C4C         -0.3970    -2.6140     0.9320 cc         1 EL5      -0.088100
     20 C4D          4.1050    -3.1810    -0.6090 c          1 EL5       0.716700
     21 CAA          4.7140     3.7850     0.1790 c2         1 EL5      -0.149200
     22 CAB         -3.3560     3.3170     0.3550 c3         1 EL5      -0.022200
     23 CAC         -4.0340    -2.1570     1.5140 c3         1 EL5      -0.010100
     24 CAD          3.9650    -1.6770    -2.7260 cf         1 EL5      -0.094000
     25 CBA          6.1680     4.1050     0.1650 c3         1 EL5      -0.053900
     26 CBB         -3.9920     3.0560    -1.0090 c3         1 EL5      -0.203400
     27 CBC         -4.8010    -2.4470     0.2260 c3         1 EL5      -0.203400
     28 CBD          5.2010    -1.8550    -3.2000 c2         1 EL5      -0.222000
     29 CGB         -5.4730     3.4580    -1.1320 c          1 EL5       0.932600
     30 CGC         -6.3230    -2.6120     0.3880 c          1 EL5       0.932600
     31 CHB          1.6870     3.0960     0.1990 ce         1 EL5      -0.236600
     32 CHC         -2.2690     0.4370     0.8620 ce         1 EL5       0.087800
     33 CHD          0.8580    -3.2980     0.8290 ce         1 EL5      -0.066200
     34 CMA          5.6310     0.6900    -0.4160 c3         1 EL5      -0.076100
     35 CMB         -0.6950     5.0760    -0.1230 c3         1 EL5      -0.010900
     36 CMC         -1.9710    -4.5740     1.5040 c3         1 EL5      -0.011800
     37 CMD          1.0230    -1.4080    -1.8210 c3         1 EL5      -0.067900
     38 NA           2.6180     1.0260     1.0010 ns         1 EL5      -0.475100
     39 OA           3.9120    -0.7200     1.7100 o          1 EL5      -0.616500
     40 NB          -0.0910     1.4720     0.5720 nd         1 EL5      -0.671300
     41 NC          -0.5430    -1.2800     0.7710 na         1 EL5      -0.125100
     42 ND           3.1560    -3.6270     0.2610 ns         1 EL5      -0.480100
     43 OD           5.2810    -3.5000    -0.5930 o          1 EL5      -0.643500
     44 H2           5.6200     1.4520     1.6030 hc         1 EL5       0.077700
     45 H4           4.0460     4.6130    -0.0370 ha         1 EL5       0.128000
     46 H6          -3.9300     2.8020     1.1290 hc         1 EL5       0.056200
     47 H7          -3.4240     4.3820     0.5900 hc         1 EL5       0.056200
     48 H8          -4.2380    -2.9430     2.2440 hc         1 EL5       0.054200
     49 H9          -4.4020    -1.2310     1.9620 hc         1 EL5       0.054200
     50 H10          3.3060    -1.0170    -3.2790 ha         1 EL5       0.118000
     51 H12          6.3700     4.9790     0.7880 hc         1 EL5       0.036367
     52 H13          6.7860     3.2830     0.5220 hc         1 EL5       0.036367
     53 H14          6.4970     4.3610    -0.8450 hc         1 EL5       0.036367
     54 H15         -3.4240     3.5820    -1.7840 hc         1 EL5       0.023700
     55 H16         -3.9000     1.9940    -1.2630 hc         1 EL5       0.023700
     56 H17         -4.6120    -1.6500    -0.5010 hc         1 EL5       0.024200
     57 H18         -4.4050    -3.3570    -0.2380 hc         1 EL5       0.024200
     58 H19          5.5090    -1.3500    -4.1060 ha         1 EL5       0.115000
     59 H20          5.9330    -2.4840    -2.7170 ha         1 EL5       0.115000
     60 H22          1.8950     4.1020    -0.1400 ha         1 EL5       0.135000
     61 H24         -3.3360     0.6020     0.9500 ha         1 EL5       0.183000
     62 H26          0.9690    -4.1480     1.4960 ha         1 EL5       0.132000
     63 H28          4.9620     0.5980    -1.2710 hc         1 EL5       0.046033
     64 H29          6.4810     1.3000    -0.7190 hc         1 EL5       0.046033
     65 H30          5.9990    -0.3060    -0.1730 hc         1 EL5       0.046033
     66 H31         -0.3060     5.2500    -1.1290 hc         1 EL5       0.028367
     67 H32         -1.6620     5.5730    -0.0600 hc         1 EL5       0.028367
     68 H33         -0.0210     5.5810     0.5710 hc         1 EL5       0.028367
     69 H34         -2.3400    -5.0620     0.5980 hc         1 EL5       0.034367
     70 H35         -1.0980    -5.1360     1.8370 hc         1 EL5       0.034367
     71 H36         -2.7420    -4.6890     2.2660 hc         1 EL5       0.034367
     72 H37          0.9180    -0.3860    -1.4500 hc         1 EL5       0.065367
     73 H38          1.2370    -1.3350    -2.8860 hc         1 EL5       0.065367
     74 H39          0.0560    -1.8970    -1.7170 hc         1 EL5       0.065367
     75 H40          1.6990     0.6520     1.2040 hn         1 EL5       0.367500
     76 H42          0.1750    -0.5950     0.5880 hn         1 EL5       0.323700
     77 H5           3.3800    -4.1480     1.0940 hn         1 EL5       0.330500
@<TRIPOS>BOND
     1     1     7 1   
     2     1    38 1   
     3     1    39 2   
     4     2     8 1   
     5     2    31 1   
     6     2    40 2   
     7     3    29 1   
     8     4    10 2   
     9     4    32 1   
    10     4    41 1   
    11     5    30 1   
    12     6    12 1   
    13     6    33 2   
    14     6    42 1   
    15     7    13 1   
    16     7    34 1   
    17     7    44 1   
    18     8    14 2   
    19     8    35 1   
    20     9    29 1   
    21    10    15 1   
    22    10    23 1   
    23    11    30 1   
    24    12    16 2   
    25    12    37 1   
    26    13    17 1   
    27    13    21 2   
    28    14    18 1   
    29    14    22 1   
    30    15    19 2   
    31    15    36 1   
    32    16    20 1   
    33    16    24 1   
    34    17    31 2   
    35    17    38 1   
    36    18    32 2   
    37    18    40 1   
    38    19    33 1   
    39    19    41 1   
    40    20    42 1   
    41    20    43 2   
    42    21    25 1   
    43    21    45 1   
    44    22    26 1   
    45    22    46 1   
    46    22    47 1   
    47    23    27 1   
    48    23    48 1   
    49    23    49 1   
    50    24    28 2   
    51    24    50 1   
    52    25    51 1   
    53    25    52 1   
    54    25    53 1   
    55    26    29 1   
    56    26    54 1   
    57    26    55 1   
    58    27    30 1   
    59    27    56 1   
    60    27    57 1   
    61    28    58 1   
    62    28    59 1   
    63    31    60 1   
    64    32    61 1   
    65    33    62 1   
    66    34    63 1   
    67    34    64 1   
    68    34    65 1   
    69    35    66 1   
    70    35    67 1   
    71    35    68 1   
    72    36    69 1   
    73    36    70 1   
    74    36    71 1   
    75    37    72 1   
    76    37    73 1   
    77    37    74 1   
    78    38    75 1   
    79    41    76 1   
    80    42    77 1   
@<TRIPOS>SUBSTRUCTURE
     1 EL5         1 TEMP              0 ****  ****    0 ROOT
