@<TRIPOS>MOLECULE
EL5
   77    80     1     0     0
SMALL
No Charge or Current Charge


@<TRIPOS>ATOM
      1 C1A          4.0580     0.4460     1.2710 c          1 EL5       0.567000
      2 C1B          0.3360     2.6250     0.2740 cc         1 EL5       0.481900
      3 O1B         -5.5180     4.6920    -1.6200 o          1 EL5      -0.737000
      4 C1C         -1.8680    -1.0590     0.9510 cc         1 EL5      -0.183800
      5 O1C         -6.9350    -3.5110     1.0530 o          1 EL5      -0.740000
      6 C1D          1.8620    -3.2330    -0.0480 cc         1 EL5       0.009600
      7 C2A          5.0960     1.5090     0.7970 c5         1 EL5      -0.117500
      8 C2B         -0.7670     3.5080     0.0680 cc         1 EL5      -0.289800
      9 O2B         -6.3160     2.8340    -0.8810 o          1 EL5      -0.737000
     10 C2C         -2.6320    -2.1580     1.2530 cd         1 EL5      -0.043300
     11 O2C         -7.1180    -1.3670     0.9850 o          1 EL5      -0.740000
     12 C2D          2.0270    -2.3340    -1.1590 cc         1 EL5       0.003800
     13 C3A          4.2350     2.7390     0.3910 cf         1 EL5      -0.086200
     14 C3B         -1.8990     2.7680     0.2780 cd         1 EL5      -0.009200
     15 C3C         -1.8020    -3.3120     1.1840 cd         1 EL5      -0.140300
     16 C3D          3.3920    -2.2240    -1.3770 cd         1 EL5      -0.190200
     17 C4A          2.8570     2.3020     0.4640 cf         1 EL5       0.058600
     18 C4B         -1.4010     1.4580     0.5890 cd         1 EL5       0.008600
     19 C4C         -0.5300    -2.9230     0.8430 cc         1 EL5      -0.138800
     20 C4D          4.1180    -3.0640    -0.3830 c          1 EL5       0.574200
     21 CAA          4.7040     3.9740     0.0840 c2         1 EL5      -0.199200
     22 CAB         -3.3380     3.2300     0.1910 c3         1 EL5      -0.022200
     23 CAC         -4.1010    -2.1580     1.6120 c3         1 EL5      -0.010100
     24 CAD          4.0410    -1.4110    -2.4140 cf         1 EL5      -0.144000
     25 CBA          6.1560     4.4060     0.0590 c3         1 EL5      -0.053900
     26 CBB         -3.9680     2.9490    -1.1930 c3         1 EL5      -0.203400
     27 CBC         -5.0190    -2.2890     0.3750 c3         1 EL5      -0.203400
     28 CBD          5.2330    -1.7040    -2.9800 c2         1 EL5      -0.322000
     29 CGB         -5.3870     3.5340    -1.2530 c          1 EL5       0.722000
     30 CGC         -6.4850    -2.3990     0.8240 c          1 EL5       0.722000
     31 CHB          1.7400     3.0280     0.1780 ce         1 EL5      -0.286600
     32 CHC         -2.2030     0.3620     0.8580 ce         1 EL5       0.037800
     33 CHD          0.6730    -3.7300     0.6480 ce         1 EL5      -0.116200
     34 CMA          5.9180     0.9690    -0.3970 c3         1 EL5      -0.076100
     35 CMB         -0.6380     4.9660    -0.3060 c3         1 EL5      -0.010900
     36 CMC         -2.2560    -4.7300     1.4410 c3         1 EL5      -0.011800
     37 CMD          0.9180    -1.7190    -1.9740 c3         1 EL5      -0.067900
     38 NA           2.8460     0.9850     0.9430 ns         1 EL5      -0.408100
     39 OA           4.2140    -0.5630     1.9400 o          1 EL5      -0.541000
     40 NB          -0.0150     1.3830     0.5880 nd         1 EL5      -0.671300
     41 NC          -0.5890    -1.5410     0.7190 na         1 EL5      -0.074000
     42 ND           3.1140    -3.6260     0.3410 ns         1 EL5      -0.413100
     43 OD           5.3160    -3.2430    -0.2190 o          1 EL5      -0.568000
     44 H2           5.7980     1.7020     1.6160 hc         1 EL5       0.077700
     45 H4           4.0050     4.7710    -0.1680 ha         1 EL5       0.178000
     46 H6          -3.9420     2.7500     0.9720 hc         1 EL5       0.056200
     47 H7          -3.3990     4.3040     0.4020 hc         1 EL5       0.056200
     48 H8          -4.3130    -2.9800     2.3070 hc         1 EL5       0.054200
     49 H9          -4.3550    -1.2400     2.1560 hc         1 EL5       0.054200
     50 H10          3.4740    -0.5500    -2.7780 ha         1 EL5       0.168000
     51 H12          6.2420     5.4950     0.1540 hc         1 EL5       0.036367
     52 H13          6.7250     3.9570     0.8820 hc         1 EL5       0.036367
     53 H14          6.6360     4.1160    -0.8840 hc         1 EL5       0.036367
     54 H15         -3.3180     3.4480    -1.9230 hc         1 EL5       0.023700
     55 H16         -3.9930     1.8580    -1.2980 hc         1 EL5       0.023700
     56 H17         -4.8600    -1.3770    -0.2130 hc         1 EL5       0.024200
     57 H18         -4.7060    -3.2060    -0.1400 hc         1 EL5       0.024200
     58 H19          5.6480    -1.0740    -3.7680 ha         1 EL5       0.165000
     59 H20          5.8160    -2.5740    -2.6790 ha         1 EL5       0.165000
     60 H22          1.8750     4.0490    -0.1600 ha         1 EL5       0.185000
     61 H24         -3.2710     0.5650     0.8820 ha         1 EL5       0.233000
     62 H26          0.7360    -4.6940     1.1540 ha         1 EL5       0.182000
     63 H28          5.2810     0.8180    -1.2760 hc         1 EL5       0.046033
     64 H29          6.7160     1.6640    -0.6820 hc         1 EL5       0.046033
     65 H30          6.3880     0.0090    -0.1530 hc         1 EL5       0.046033
     66 H31         -0.0250     5.0850    -1.2080 hc         1 EL5       0.028367
     67 H32         -1.6110     5.4230    -0.5150 hc         1 EL5       0.028367
     68 H33         -0.1670     5.5360     0.5030 hc         1 EL5       0.028367
     69 H34         -3.2620    -4.9060     1.0430 hc         1 EL5       0.034367
     70 H35         -1.5890    -5.4590     0.9670 hc         1 EL5       0.034367
     71 H36         -2.2770    -4.9430     2.5160 hc         1 EL5       0.034367
     72 H37          0.7200    -0.6880    -1.6600 hc         1 EL5       0.065367
     73 H38          1.1860    -1.6950    -3.0360 hc         1 EL5       0.065367
     74 H39         -0.0100    -2.2960    -1.8910 hc         1 EL5       0.065367
     75 H40          1.9700     0.5430     1.1940 hn         1 EL5       0.367500
     76 H42          0.1940    -0.9410     0.4840 hn         1 EL5       0.374000
     77 H5           3.3150    -4.2500     1.1120 hn         1 EL5       0.330500
@<TRIPOS>BOND
     1     1     7 1   
     2     1    38 1   
     3     1    39 2   
     4     2     8 1   
     5     2    31 1   
     6     2    40 2   
     7     3    29 1   
     8     4    10 2   
     9     4    32 1   
    10     4    41 1   
    11     5    30 1   
    12     6    12 1   
    13     6    33 2   
    14     6    42 1   
    15     7    13 1   
    16     7    34 1   
    17     7    44 1   
    18     8    14 2   
    19     8    35 1   
    20     9    29 1   
    21    10    15 1   
    22    10    23 1   
    23    11    30 1   
    24    12    16 2   
    25    12    37 1   
    26    13    17 1   
    27    13    21 2   
    28    14    18 1   
    29    14    22 1   
    30    15    19 2   
    31    15    36 1   
    32    16    20 1   
    33    16    24 1   
    34    17    31 2   
    35    17    38 1   
    36    18    32 2   
    37    18    40 1   
    38    19    33 1   
    39    19    41 1   
    40    20    42 1   
    41    20    43 2   
    42    21    25 1   
    43    21    45 1   
    44    22    26 1   
    45    22    46 1   
    46    22    47 1   
    47    23    27 1   
    48    23    48 1   
    49    23    49 1   
    50    24    28 2   
    51    24    50 1   
    52    25    51 1   
    53    25    52 1   
    54    25    53 1   
    55    26    29 1   
    56    26    54 1   
    57    26    55 1   
    58    27    30 1   
    59    27    56 1   
    60    27    57 1   
    61    28    58 1   
    62    28    59 1   
    63    31    60 1   
    64    32    61 1   
    65    33    62 1   
    66    34    63 1   
    67    34    64 1   
    68    34    65 1   
    69    35    66 1   
    70    35    67 1   
    71    35    68 1   
    72    36    69 1   
    73    36    70 1   
    74    36    71 1   
    75    37    72 1   
    76    37    73 1   
    77    37    74 1   
    78    38    75 1   
    79    41    76 1   
    80    42    77 1   
@<TRIPOS>SUBSTRUCTURE
     1 EL5         1 TEMP              0 ****  ****    0 ROOT
