@<TRIPOS>MOLECULE
EL6
  119   118     1     0     0
SMALL
bcc


@<TRIPOS>ATOM
      1 C1         105.4530   134.1430   108.6790 c3         1 EL6      -0.114100
      2 C2         106.3620   133.3810   109.6210 c3         1 EL6       0.150100
      3 C3         106.7730   132.0440   109.0420 c3         1 EL6       0.140400
      4 O31        107.6610   131.4400   109.9800 os         1 EL6      -0.424900
      5 O32        108.2420   129.8450   108.5320 o          1 EL6      -0.536000
      6 C31        108.3820   130.3920   109.5970 c          1 EL6       0.646100
      7 C32        109.3940   130.0180   110.6450 c3         1 EL6      -0.140400
      8 C33        110.1250   128.7150   110.3680 c3         1 EL6      -0.068400
      9 C34        111.2380   128.4670   111.3790 c3         1 EL6      -0.078400
     10 C35        111.9490   127.1390   111.1590 c3         1 EL6      -0.074400
     11 C36        113.1470   126.9410   112.0780 c3         1 EL6      -0.076400
     12 C37        113.7640   125.5520   111.9630 c3         1 EL6      -0.075400
     13 C38        115.0250   125.3870   112.8040 c3         1 EL6      -0.071400
     14 C39        115.5430   123.9540   112.8830 c3         1 EL6      -0.073400
     15 C3A        115.9210   123.3400   111.5390 c3         1 EL6      -0.076400
     16 C3B        116.5380   121.9540   111.6900 c3         1 EL6      -0.075400
     17 C3C        116.8080   121.2370   110.3690 c3         1 EL6      -0.073400
     18 C3D        115.5380   120.8080   109.6410 c3         1 EL6      -0.074400
     19 C3E        115.7920   119.9500   108.4040 c3         1 EL6      -0.072400
     20 C3F        116.6500   120.6050   107.3220 c3         1 EL6      -0.073400
     21 C3G        116.0830   121.9190   106.7950 c3         1 EL6      -0.074400
     22 C3H        116.9190   122.5600   105.6890 c3         1 EL6      -0.074400
     23 C3I        117.0040   121.7340   104.4120 c3         1 EL6      -0.089100
     24 O21        107.5890   134.0920   109.8350 os         1 EL6      -0.426900
     25 O22        106.7840   135.2550   111.5630 o          1 EL6      -0.541000
     26 C21        107.7090   134.9170   110.8670 c          1 EL6       0.650100
     27 C22        109.1430   135.3100   111.0960 c3         1 EL6      -0.136400
     28 C23        109.9520   135.6480   109.8460 c3         1 EL6      -0.068400
     29 C24        111.4440   135.7920   110.1400 c3         1 EL6      -0.074400
     30 C25        112.1290   134.5040   110.5990 c3         1 EL6      -0.074400
     31 C26        112.0140   133.3580   109.5990 c3         1 EL6      -0.079400
     32 C27        112.8940   132.1650   109.9480 c3         1 EL6      -0.077400
     33 C28        112.8100   131.0410   108.9200 c3         1 EL6      -0.078400
     34 C29        113.8460   129.9240   109.1190 c3         1 EL6      -0.071400
     35 C2A        115.0480   130.0310   108.1830 c3         1 EL6      -0.075400
     36 C2B        115.8560   131.3140   108.3400 c3         1 EL6      -0.078400
     37 C2C        117.0090   131.4110   107.3490 c3         1 EL6      -0.073400
     38 C2D        117.8830   132.6490   107.5220 c3         1 EL6      -0.073400
     39 C2E        117.1500   133.9700   107.3120 c3         1 EL6      -0.076400
     40 C2F        118.0880   135.1720   107.3640 c3         1 EL6      -0.074400
     41 C2G        117.3880   136.5240   107.2510 c3         1 EL6      -0.073400
     42 C2H        116.6940   136.7630   105.9140 c3         1 EL6      -0.076400
     43 C2I        116.0780   138.1520   105.8120 c3         1 EL6      -0.089100
     44 H1         104.5450   133.5700   108.4880 hc         1 EL6       0.051367
     45 H2         105.1570   135.0970   109.1130 hc         1 EL6       0.051367
     46 H3         105.9430   134.3330   107.7240 hc         1 EL6       0.051367
     47 H4         105.8590   133.2260   110.5790 h1         1 EL6       0.075700
     48 H5         105.8890   131.4210   108.8910 h1         1 EL6       0.060200
     49 H6         107.2640   132.1780   108.0750 h1         1 EL6       0.060200
     50 H7         110.1110   130.8450   110.7120 hc         1 EL6       0.072700
     51 H8         108.9020   129.9880   111.6210 hc         1 EL6       0.072700
     52 H9         109.4170   127.8820   110.3850 hc         1 EL6       0.054700
     53 H10        110.5550   128.7340   109.3630 hc         1 EL6       0.054700
     54 H11        111.9650   129.2850   111.3210 hc         1 EL6       0.039200
     55 H12        110.8300   128.4960   112.3950 hc         1 EL6       0.039200
     56 H13        111.2360   126.3200   111.3030 hc         1 EL6       0.039700
     57 H14        112.2810   127.0710   110.1170 hc         1 EL6       0.039700
     58 H15        113.9030   127.7020   111.8530 hc         1 EL6       0.036700
     59 H16        112.8460   127.1140   113.1180 hc         1 EL6       0.036700
     60 H17        113.0200   124.8070   112.2690 hc         1 EL6       0.038700
     61 H18        113.9840   125.3420   110.9120 hc         1 EL6       0.038700
     62 H19        115.8120   126.0380   112.4080 hc         1 EL6       0.036700
     63 H20        114.8230   125.7420   113.8200 hc         1 EL6       0.036700
     64 H21        114.7850   123.3220   113.3600 hc         1 EL6       0.037200
     65 H22        116.4150   123.9270   113.5440 hc         1 EL6       0.037200
     66 H23        116.6280   123.9970   111.0200 hc         1 EL6       0.038700
     67 H24        115.0340   123.2880   110.9000 hc         1 EL6       0.038700
     68 H25        115.8800   121.3300   112.3060 hc         1 EL6       0.036200
     69 H26        117.4750   122.0460   112.2500 hc         1 EL6       0.036200
     70 H27        117.4180   120.3480   110.5650 hc         1 EL6       0.038700
     71 H28        117.4130   121.8820   109.7220 hc         1 EL6       0.038700
     72 H29        114.9510   121.6880   109.3610 hc         1 EL6       0.037200
     73 H30        114.9090   120.2420   110.3360 hc         1 EL6       0.037200
     74 H31        114.8280   119.6680   107.9680 hc         1 EL6       0.036200
     75 H32        116.2690   119.0140   108.7100 hc         1 EL6       0.036200
     76 H33        116.7540   119.8920   106.4990 hc         1 EL6       0.037200
     77 H34        117.6640   120.7750   107.6990 hc         1 EL6       0.037200
     78 H35        115.9970   122.6350   107.6190 hc         1 EL6       0.037700
     79 H36        115.0630   121.7550   106.4300 hc         1 EL6       0.037700
     80 H37        117.9280   122.7540   106.0680 hc         1 EL6       0.035700
     81 H38        116.4950   123.5390   105.4510 hc         1 EL6       0.035700
     82 H39        117.5620   122.2610   103.6370 hc         1 EL6       0.030700
     83 H40        117.5020   120.7770   104.5750 hc         1 EL6       0.030700
     84 H41        116.0090   121.5220   104.0140 hc         1 EL6       0.030700
     85 H42        109.5980   134.4580   111.6150 hc         1 EL6       0.072200
     86 H43        109.1640   136.1420   111.8000 hc         1 EL6       0.072200
     87 H44        109.5770   136.5820   109.4190 hc         1 EL6       0.051700
     88 H45        109.8060   134.8830   109.0820 hc         1 EL6       0.051700
     89 H46        111.9420   136.1430   109.2310 hc         1 EL6       0.041200
     90 H47        111.5960   136.5720   110.8920 hc         1 EL6       0.041200
     91 H48        111.7410   134.1840   111.5710 hc         1 EL6       0.037200
     92 H49        113.1880   134.7250   110.7650 hc         1 EL6       0.037200
     93 H50        112.2890   133.7240   108.6030 hc         1 EL6       0.040700
     94 H51        110.9720   133.0280   109.5190 hc         1 EL6       0.040700
     95 H52        112.6180   131.7740   110.9340 hc         1 EL6       0.036200
     96 H53        113.9300   132.5040   110.0440 hc         1 EL6       0.036200
     97 H54        112.9190   131.4620   107.9140 hc         1 EL6       0.039700
     98 H55        111.8000   130.6210   108.9460 hc         1 EL6       0.039700
     99 H56        114.1930   129.9240   110.1590 hc         1 EL6       0.038700
    100 H57        113.3760   128.9480   108.9660 hc         1 EL6       0.038700
    101 H58        114.6940   129.9570   107.1480 hc         1 EL6       0.036700
    102 H59        115.7080   129.1710   108.3380 hc         1 EL6       0.036700
    103 H60        116.2460   131.3770   109.3620 hc         1 EL6       0.039200
    104 H61        115.1940   132.1760   108.2130 hc         1 EL6       0.039200
    105 H62        116.6070   131.3930   106.3290 hc         1 EL6       0.036700
    106 H63        117.6360   130.5180   107.4410 hc         1 EL6       0.036700
    107 H64        118.7180   132.5940   106.8160 hc         1 EL6       0.036200
    108 H65        118.3340   132.6420   108.5220 hc         1 EL6       0.036200
    109 H66        116.6300   133.9400   106.3490 hc         1 EL6       0.038200
    110 H67        116.3740   134.0950   108.0730 hc         1 EL6       0.038200
    111 H68        118.6460   135.1420   108.3060 hc         1 EL6       0.036700
    112 H69        118.8360   135.0810   106.5680 hc         1 EL6       0.036700
    113 H70        118.1250   137.3180   107.4110 hc         1 EL6       0.036200
    114 H71        116.6560   136.6230   108.0610 hc         1 EL6       0.036200
    115 H72        115.9160   136.0120   105.7580 hc         1 EL6       0.037200
    116 H73        117.4180   136.6240   105.1050 hc         1 EL6       0.037200
    117 H74        115.5910   138.3040   104.8480 hc         1 EL6       0.031033
    118 H75        115.3260   138.3090   106.5890 hc         1 EL6       0.031033
    119 H76        116.8350   138.9300   105.9270 hc         1 EL6       0.031033
@<TRIPOS>BOND
     1     1     2 1   
     2     1    44 1   
     3     1    45 1   
     4     1    46 1   
     5     2     3 1   
     6     2    24 1   
     7     2    47 1   
     8     3     4 1   
     9     3    48 1   
    10     3    49 1   
    11     4     6 1   
    12     5     6 2   
    13     6     7 1   
    14     7     8 1   
    15     7    50 1   
    16     7    51 1   
    17     8     9 1   
    18     8    52 1   
    19     8    53 1   
    20     9    10 1   
    21     9    54 1   
    22     9    55 1   
    23    10    11 1   
    24    10    56 1   
    25    10    57 1   
    26    11    12 1   
    27    11    58 1   
    28    11    59 1   
    29    12    13 1   
    30    12    60 1   
    31    12    61 1   
    32    13    14 1   
    33    13    62 1   
    34    13    63 1   
    35    14    15 1   
    36    14    64 1   
    37    14    65 1   
    38    15    16 1   
    39    15    66 1   
    40    15    67 1   
    41    16    17 1   
    42    16    68 1   
    43    16    69 1   
    44    17    18 1   
    45    17    70 1   
    46    17    71 1   
    47    18    19 1   
    48    18    72 1   
    49    18    73 1   
    50    19    20 1   
    51    19    74 1   
    52    19    75 1   
    53    20    21 1   
    54    20    76 1   
    55    20    77 1   
    56    21    22 1   
    57    21    78 1   
    58    21    79 1   
    59    22    23 1   
    60    22    80 1   
    61    22    81 1   
    62    23    82 1   
    63    23    83 1   
    64    23    84 1   
    65    24    26 1   
    66    25    26 2   
    67    26    27 1   
    68    27    28 1   
    69    27    85 1   
    70    27    86 1   
    71    28    29 1   
    72    28    87 1   
    73    28    88 1   
    74    29    30 1   
    75    29    89 1   
    76    29    90 1   
    77    30    31 1   
    78    30    91 1   
    79    30    92 1   
    80    31    32 1   
    81    31    93 1   
    82    31    94 1   
    83    32    33 1   
    84    32    95 1   
    85    32    96 1   
    86    33    34 1   
    87    33    97 1   
    88    33    98 1   
    89    34    35 1   
    90    34    99 1   
    91    34   100 1   
    92    35    36 1   
    93    35   101 1   
    94    35   102 1   
    95    36    37 1   
    96    36   103 1   
    97    36   104 1   
    98    37    38 1   
    99    37   105 1   
   100    37   106 1   
   101    38    39 1   
   102    38   107 1   
   103    38   108 1   
   104    39    40 1   
   105    39   109 1   
   106    39   110 1   
   107    40    41 1   
   108    40   111 1   
   109    40   112 1   
   110    41    42 1   
   111    41   113 1   
   112    41   114 1   
   113    42    43 1   
   114    42   115 1   
   115    42   116 1   
   116    43   117 1   
   117    43   118 1   
   118    43   119 1   
@<TRIPOS>SUBSTRUCTURE
     1 EL6         1 TEMP              0 ****  ****    0 ROOT
