@<TRIPOS>MOLECULE
EL6
  119   118     1     0     0
SMALL
No Charge or Current Charge


@<TRIPOS>ATOM
      1 C1         105.7810   134.7970   110.8540 c3         1 EL6      -0.114100
      2 C2         106.9980   134.1470   111.5550 c3         1 EL6       0.173300
      3 C3         106.6860   132.6960   112.0030 c3         1 EL6       0.163600
      4 O31        107.8450   132.1390   112.6610 os         1 EL6      -0.448100
      5 O32        106.7110   130.2050   113.1540 o          1 EL6      -0.487000
      6 C31        107.7410   130.8670   113.1600 c          1 EL6       0.597100
      7 C32        109.0590   130.3710   113.7610 c3         1 EL6      -0.140400
      8 C33        109.7750   129.3880   112.8030 c3         1 EL6      -0.068400
      9 C34        111.0560   128.7690   113.4070 c3         1 EL6      -0.078400
     10 C35        111.7090   127.7220   112.4780 c3         1 EL6      -0.074400
     11 C36        112.9760   127.0720   113.0730 c3         1 EL6      -0.076400
     12 C37        113.5750   125.9860   112.1520 c3         1 EL6      -0.075400
     13 C38        114.8600   125.3430   112.7250 c3         1 EL6      -0.071400
     14 C39        115.4230   124.1720   111.8830 c3         1 EL6      -0.073400
     15 C3A        115.9370   124.5800   110.4830 c3         1 EL6      -0.076400
     16 C3B        116.5550   123.4010   109.6940 c3         1 EL6      -0.075400
     17 C3C        117.2350   123.8090   108.3650 c3         1 EL6      -0.073400
     18 C3D        116.2870   124.4670   107.3320 c3         1 EL6      -0.074400
     19 C3E        116.9300   124.7410   105.9480 c3         1 EL6      -0.072400
     20 C3F        118.2100   125.6170   105.9510 c3         1 EL6      -0.073400
     21 C3G        118.0330   127.0130   106.5980 c3         1 EL6      -0.074400
     22 C3H        119.3000   127.8970   106.5650 c3         1 EL6      -0.074400
     23 C3I        119.6880   128.4030   105.1600 c3         1 EL6      -0.089100
     24 O21        108.0930   134.0880   110.6150 os         1 EL6      -0.450100
     25 O22        108.5290   136.3470   110.7390 o          1 EL6      -0.492000
     26 C21        108.7870   135.2320   110.3080 c          1 EL6       0.601100
     27 C22        109.9140   134.9470   109.3170 c3         1 EL6      -0.136400
     28 C23        109.4110   134.9770   107.8500 c3         1 EL6      -0.068400
     29 C24        110.5110   134.7090   106.7880 c3         1 EL6      -0.074400
     30 C25        111.3560   133.4260   107.0020 c3         1 EL6      -0.074400
     31 C26        110.5490   132.1050   107.0080 c3         1 EL6      -0.079400
     32 C27        111.3780   130.9120   107.5290 c3         1 EL6      -0.077400
     33 C28        110.6160   129.5680   107.5020 c3         1 EL6      -0.078400
     34 C29        111.1350   128.4860   108.4850 c3         1 EL6      -0.071400
     35 C2A        112.5790   127.9600   108.2660 c3         1 EL6      -0.075400
     36 C2B        113.7090   128.8650   108.8170 c3         1 EL6      -0.078400
     37 C2C        115.0990   128.1950   108.7620 c3         1 EL6      -0.073400
     38 C2D        116.2530   129.0730   109.3010 c3         1 EL6      -0.073400
     39 C2E        116.6190   130.2650   108.3860 c3         1 EL6      -0.076400
     40 C2F        117.8240   131.0790   108.9100 c3         1 EL6      -0.074400
     41 C2G        118.2240   132.2760   108.0140 c3         1 EL6      -0.073400
     42 C2H        118.8140   131.8780   106.6400 c3         1 EL6      -0.076400
     43 C2I        119.2560   133.0910   105.8000 c3         1 EL6      -0.089100
     44 H1         104.9010   134.7620   111.5080 hc         1 EL6       0.051367
     45 H2         105.9700   135.8490   110.6130 hc         1 EL6       0.051367
     46 H3         105.5380   134.2670   109.9260 hc         1 EL6       0.051367
     47 H4         107.2690   134.7310   112.4450 h1         1 EL6       0.075700
     48 H5         105.8260   132.7130   112.6860 h1         1 EL6       0.060200
     49 H6         106.4120   132.0960   111.1250 h1         1 EL6       0.060200
     50 H7         109.7250   131.2240   113.9380 hc         1 EL6       0.072700
     51 H8         108.8420   129.8550   114.7030 hc         1 EL6       0.072700
     52 H9         109.0810   128.5800   112.5390 hc         1 EL6       0.054700
     53 H10        110.0270   129.9080   111.8700 hc         1 EL6       0.054700
     54 H11        111.7790   129.5660   113.6220 hc         1 EL6       0.039200
     55 H12        110.8090   128.2920   114.3640 hc         1 EL6       0.039200
     56 H13        110.9760   126.9380   112.2490 hc         1 EL6       0.039700
     57 H14        111.9710   128.2010   111.5290 hc         1 EL6       0.039700
     58 H15        113.7280   127.8490   113.2550 hc         1 EL6       0.036700
     59 H16        112.7310   126.6250   114.0450 hc         1 EL6       0.036700
     60 H17        112.8250   125.2030   111.9860 hc         1 EL6       0.038700
     61 H18        113.7910   126.4340   111.1760 hc         1 EL6       0.038700
     62 H19        115.6330   126.1140   112.8350 hc         1 EL6       0.036700
     63 H20        114.6460   124.9690   113.7340 hc         1 EL6       0.036700
     64 H21        114.6500   123.4000   111.7760 hc         1 EL6       0.037200
     65 H22        116.2480   123.7140   112.4410 hc         1 EL6       0.037200
     66 H23        116.6830   125.3770   110.5900 hc         1 EL6       0.038700
     67 H24        115.1020   124.9890   109.9030 hc         1 EL6       0.038700
     68 H25        115.7770   122.6560   109.4890 hc         1 EL6       0.036200
     69 H26        117.3050   122.9060   110.3240 hc         1 EL6       0.036200
     70 H27        117.6830   122.9140   107.9150 hc         1 EL6       0.038700
     71 H28        118.0620   124.4930   108.5920 hc         1 EL6       0.038700
     72 H29        115.8970   125.4080   107.7350 hc         1 EL6       0.037200
     73 H30        115.4180   123.8140   107.1830 hc         1 EL6       0.037200
     74 H31        116.1800   125.2180   105.3060 hc         1 EL6       0.036200
     75 H32        117.1700   123.7800   105.4770 hc         1 EL6       0.036200
     76 H33        118.5340   125.7400   104.9110 hc         1 EL6       0.037200
     77 H34        119.0190   125.0810   106.4620 hc         1 EL6       0.037200
     78 H35        117.7460   126.8810   107.6470 hc         1 EL6       0.037700
     79 H36        117.2070   127.5430   106.1070 hc         1 EL6       0.037700
     80 H37        120.1430   127.3450   106.9980 hc         1 EL6       0.035700
     81 H38        119.1340   128.7660   107.2110 hc         1 EL6       0.035700
     82 H39        120.5480   129.0790   105.2250 hc         1 EL6       0.030700
     83 H40        119.9610   127.5710   104.5000 hc         1 EL6       0.030700
     84 H41        118.8560   128.9520   104.7030 hc         1 EL6       0.030700
     85 H42        110.2780   133.9330   109.5150 hc         1 EL6       0.072200
     86 H43        110.7140   135.6840   109.4460 hc         1 EL6       0.072200
     87 H44        108.9650   135.9590   107.6480 hc         1 EL6       0.051700
     88 H45        108.6010   134.2470   107.7300 hc         1 EL6       0.051700
     89 H46        110.0420   134.6660   105.7970 hc         1 EL6       0.041200
     90 H47        111.1920   135.5690   106.7680 hc         1 EL6       0.041200
     91 H48        111.9170   133.5190   107.9390 hc         1 EL6       0.037200
     92 H49        112.1110   133.3690   106.2080 hc         1 EL6       0.037200
     93 H50        110.1870   131.8940   105.9940 hc         1 EL6       0.040700
     94 H51        109.6650   132.2080   107.6480 hc         1 EL6       0.040700
     95 H52        111.6890   131.1310   108.5580 hc         1 EL6       0.036200
     96 H53        112.2850   130.8230   106.9200 hc         1 EL6       0.036200
     97 H54        110.6220   129.1690   106.4800 hc         1 EL6       0.039700
     98 H55        109.5640   129.7550   107.7510 hc         1 EL6       0.039700
     99 H56        111.0330   128.8590   109.5100 hc         1 EL6       0.038700
    100 H57        110.4560   127.6270   108.4120 hc         1 EL6       0.038700
    101 H58        112.7440   127.7730   107.1980 hc         1 EL6       0.036700
    102 H59        112.6550   126.9850   108.7650 hc         1 EL6       0.036700
    103 H60        113.4860   129.1360   109.8560 hc         1 EL6       0.039200
    104 H61        113.7490   129.7950   108.2460 hc         1 EL6       0.039200
    105 H62        115.3190   127.8990   107.7290 hc         1 EL6       0.036700
    106 H63        115.0680   127.2740   109.3510 hc         1 EL6       0.036700
    107 H64        117.1400   128.4410   109.4250 hc         1 EL6       0.036200
    108 H65        115.9920   129.4420   110.3000 hc         1 EL6       0.036200
    109 H66        116.8390   129.8810   107.3830 hc         1 EL6       0.038200
    110 H67        115.7570   130.9360   108.2890 hc         1 EL6       0.038200
    111 H68        117.5800   131.4610   109.9090 hc         1 EL6       0.036700
    112 H69        118.6900   130.4170   109.0340 hc         1 EL6       0.036700
    113 H70        118.9680   132.8760   108.5530 hc         1 EL6       0.036200
    114 H71        117.3510   132.9230   107.8640 hc         1 EL6       0.036200
    115 H72        118.0730   131.3090   106.0660 hc         1 EL6       0.037200
    116 H73        119.6770   131.2190   106.7930 hc         1 EL6       0.037200
    117 H74        119.6660   132.7600   104.8390 hc         1 EL6       0.031033
    118 H75        118.4060   133.7550   105.6010 hc         1 EL6       0.031033
    119 H76        120.0300   133.6650   106.3240 hc         1 EL6       0.031033
@<TRIPOS>BOND
     1     1     2 1   
     2     1    44 1   
     3     1    45 1   
     4     1    46 1   
     5     2     3 1   
     6     2    24 1   
     7     2    47 1   
     8     3     4 1   
     9     3    48 1   
    10     3    49 1   
    11     4     6 1   
    12     5     6 2   
    13     6     7 1   
    14     7     8 1   
    15     7    50 1   
    16     7    51 1   
    17     8     9 1   
    18     8    52 1   
    19     8    53 1   
    20     9    10 1   
    21     9    54 1   
    22     9    55 1   
    23    10    11 1   
    24    10    56 1   
    25    10    57 1   
    26    11    12 1   
    27    11    58 1   
    28    11    59 1   
    29    12    13 1   
    30    12    60 1   
    31    12    61 1   
    32    13    14 1   
    33    13    62 1   
    34    13    63 1   
    35    14    15 1   
    36    14    64 1   
    37    14    65 1   
    38    15    16 1   
    39    15    66 1   
    40    15    67 1   
    41    16    17 1   
    42    16    68 1   
    43    16    69 1   
    44    17    18 1   
    45    17    70 1   
    46    17    71 1   
    47    18    19 1   
    48    18    72 1   
    49    18    73 1   
    50    19    20 1   
    51    19    74 1   
    52    19    75 1   
    53    20    21 1   
    54    20    76 1   
    55    20    77 1   
    56    21    22 1   
    57    21    78 1   
    58    21    79 1   
    59    22    23 1   
    60    22    80 1   
    61    22    81 1   
    62    23    82 1   
    63    23    83 1   
    64    23    84 1   
    65    24    26 1   
    66    25    26 2   
    67    26    27 1   
    68    27    28 1   
    69    27    85 1   
    70    27    86 1   
    71    28    29 1   
    72    28    87 1   
    73    28    88 1   
    74    29    30 1   
    75    29    89 1   
    76    29    90 1   
    77    30    31 1   
    78    30    91 1   
    79    30    92 1   
    80    31    32 1   
    81    31    93 1   
    82    31    94 1   
    83    32    33 1   
    84    32    95 1   
    85    32    96 1   
    86    33    34 1   
    87    33    97 1   
    88    33    98 1   
    89    34    35 1   
    90    34    99 1   
    91    34   100 1   
    92    35    36 1   
    93    35   101 1   
    94    35   102 1   
    95    36    37 1   
    96    36   103 1   
    97    36   104 1   
    98    37    38 1   
    99    37   105 1   
   100    37   106 1   
   101    38    39 1   
   102    38   107 1   
   103    38   108 1   
   104    39    40 1   
   105    39   109 1   
   106    39   110 1   
   107    40    41 1   
   108    40   111 1   
   109    40   112 1   
   110    41    42 1   
   111    41   113 1   
   112    41   114 1   
   113    42    43 1   
   114    42   115 1   
   115    42   116 1   
   116    43   117 1   
   117    43   118 1   
   118    43   119 1   
@<TRIPOS>SUBSTRUCTURE
     1 EL6         1 TEMP              0 ****  ****    0 ROOT
