@<TRIPOS>MOLECULE
EL7
  131   132     1     0     0
SMALL
abcg2


@<TRIPOS>ATOM
      1 O6          -1.9260    -6.0510    -3.4180 oh         1 EL7      -0.674000
      2 C6          -7.8910     1.9670     0.3770 c3         1 EL7      -0.075400
      3 C5          -6.5280     1.6710    -0.2370 c3         1 EL7      -0.073400
      4 C7          -8.8050     2.8020    -0.5110 c3         1 EL7      -0.073400
      5 C4          -5.6360     0.8530     0.6880 c3         1 EL7      -0.074400
      6 O2           2.0810    -0.8840     1.3920 oh         1 EL7      -0.637000
      7 C2          -3.3860    -0.2330     1.0820 c3         1 EL7      -0.072400
      8 N1           7.5490     0.9880    -0.3690 ns         1 EL7      -0.506900
      9 C38        -17.8850     7.4460    -0.9430 c3         1 EL7      -0.074400
     10 C37        -16.9070     6.5900    -0.1480 c3         1 EL7      -0.075400
     11 C36        -15.6160     6.2850    -0.8980 c3         1 EL7      -0.074400
     12 C35        -14.6480     5.4290    -0.0930 c3         1 EL7      -0.074400
     13 C43        -13.3470     5.1200    -0.8240 c3         1 EL7      -0.073400
     14 C42        -12.3940     4.2660     0.0010 c3         1 EL7      -0.075400
     15 C41        -11.0770     3.9560    -0.7020 c3         1 EL7      -0.073400
     16 C40        -10.1430     3.1080     0.1510 c3         1 EL7      -0.075400
     17 C3          -4.2480     0.5780     0.1230 c3         1 EL7      -0.074400
     18 C1          -1.9780    -0.4740     0.5500 c3         1 EL7      -0.154400
     19 O           -1.1460    -1.0960     2.7090 o          1 EL7      -0.594100
     20 N2          -0.3970    -2.2580     0.9230 ns         1 EL7      -0.504900
     21 C27          0.4270    -3.2050     1.6410 c3         1 EL7       0.087700
     22 C28         -0.3060    -4.5360     1.7270 c3         1 EL7       0.143600
     23 O4          -0.5230    -5.0070     0.4130 os         1 EL7      -0.476000
     24 C31         -1.4270    -6.0540     0.3050 c6         1 EL7       0.359300
     25 O9          -2.7410    -5.6680     0.6050 os         1 EL7      -0.451000
     26 C30         -3.2800    -4.6740    -0.2510 c6         1 EL7       0.173300
     27 C29         -4.6660    -4.3300     0.2510 c3         1 EL7       0.170600
     28 O8          -4.5490    -3.7560     1.5310 oh         1 EL7      -0.714000
     29 C34         -3.2850    -5.1300    -1.7050 c6         1 EL7       0.146300
     30 O7          -4.2020    -6.1870    -1.8550 oh         1 EL7      -0.715000
     31 C33         -1.8720    -5.5550    -2.1010 c6         1 EL7       0.139300
     32 C32         -1.3590    -6.6040    -1.1220 c6         1 EL7       0.115300
     33 O5          -0.0550    -6.9610    -1.5040 oh         1 EL7      -0.709000
     34 C26          1.8150    -3.3060     0.9710 c3         1 EL7       0.130300
     35 O3           2.4630    -4.5170     1.2740 oh         1 EL7      -0.640000
     36 C25          2.7400    -2.1280     1.3450 c3         1 EL7       0.136300
     37 C24          3.9660    -2.0760     0.4360 c3         1 EL7      -0.109400
     38 C23          5.0150    -1.0800     0.9110 c3         1 EL7      -0.066400
     39 C22          6.2020    -0.9940    -0.0460 c3         1 EL7      -0.158400
     40 C21          7.2510    -0.0270     0.4580 c          1 EL7       0.598100
     41 O1           7.7710    -0.1600     1.5600 o          1 EL7      -0.604100
     42 C19          8.5270     2.0090    -0.0650 c3         1 EL7       0.104000
     43 C18          9.9510     1.6290    -0.4520 c3         1 EL7      -0.100400
     44 C17         10.9350     2.7560    -0.1660 c3         1 EL7      -0.072400
     45 C16         12.3680     2.4100    -0.5480 c3         1 EL7      -0.075400
     46 C15         13.3430     3.5530    -0.2930 c3         1 EL7      -0.073400
     47 C14         14.7810     3.1990    -0.6730 c3         1 EL7      -0.031100
     48 C13         15.7250     4.3470    -0.4520 ca         1 EL7      -0.077300
     49 C12         16.3040     4.5650     0.7980 ca         1 EL7      -0.107500
     50 C11         17.1420     5.6490     1.0180 ca         1 EL7      -0.109500
     51 C10         17.4160     6.5400    -0.0130 ca         1 EL7      -0.112000
     52 C9          16.8460     6.3350    -1.2620 ca         1 EL7      -0.109500
     53 C8          16.0080     5.2480    -1.4760 ca         1 EL7      -0.107500
     54 H1          -1.1020    -6.5160    -3.5980 ho         1 EL7       0.469000
     55 H2          -8.3900     1.0230     0.6230 hc         1 EL7       0.037700
     56 H3          -7.7460     2.4860     1.3310 hc         1 EL7       0.037700
     57 H4          -6.6600     1.1390    -1.1860 hc         1 EL7       0.036700
     58 H5          -6.0290     2.6130    -0.4860 hc         1 EL7       0.036700
     59 H6          -8.3030     3.7410    -0.7700 hc         1 EL7       0.037200
     60 H7          -8.9750     2.2790    -1.4580 hc         1 EL7       0.037200
     61 H8          -5.5350     1.3780     1.6450 hc         1 EL7       0.039200
     62 H9          -6.1290    -0.0980     0.9190 hc         1 EL7       0.039200
     63 H10          1.7740    -0.6630     0.5060 ho         1 EL7       0.436000
     64 H11         -3.3260     0.2870     2.0420 hc         1 EL7       0.059700
     65 H12         -3.8670    -1.1950     1.2800 hc         1 EL7       0.059700
     66 H13          7.1090     1.0160    -1.2730 hn         1 EL7       0.309500
     67 H14        -17.3990     8.3860    -1.2240 hc         1 EL7       0.036700
     68 H15        -18.1280     6.9390    -1.8820 hc         1 EL7       0.036700
     69 H17        -16.6660     7.0960     0.7930 hc         1 EL7       0.036700
     70 H18        -17.3940     5.6500     0.1330 hc         1 EL7       0.036700
     71 H19        -15.8540     5.7770    -1.8400 hc         1 EL7       0.036700
     72 H20        -15.1270     7.2250    -1.1780 hc         1 EL7       0.036700
     73 H21        -14.4180     5.9350     0.8520 hc         1 EL7       0.036700
     74 H22        -15.1390     4.4890     0.1830 hc         1 EL7       0.036700
     75 H23        -13.5720     4.6110    -1.7680 hc         1 EL7       0.037200
     76 H24        -12.8520     6.0590    -1.0980 hc         1 EL7       0.037200
     77 H25        -12.1830     4.7740     0.9490 hc         1 EL7       0.036700
     78 H26        -12.8900     3.3260     0.2690 hc         1 EL7       0.036700
     79 H27        -11.2800     3.4420    -1.6470 hc         1 EL7       0.037200
     80 H28        -10.5780     4.8940    -0.9690 hc         1 EL7       0.037200
     81 H29        -10.6420     2.1670     0.4090 hc         1 EL7       0.037200
     82 H30         -9.9610     3.6200     1.1030 hc         1 EL7       0.037200
     83 H31         -4.3390     0.0460    -0.8300 hc         1 EL7       0.034200
     84 H32         -3.7520     1.5270    -0.1050 hc         1 EL7       0.034200
     85 H33         -2.0260    -0.9440    -0.4360 hc         1 EL7       0.051200
     86 H34         -1.4690     0.4850     0.4030 hc         1 EL7       0.051200
     87 H35         -0.5100    -2.4090    -0.0670 hn         1 EL7       0.310500
     88 H36          0.5430    -2.8380     2.6640 h1         1 EL7       0.097700
     89 H37          0.2610    -5.2670     2.3140 h1         1 EL7       0.049700
     90 H38         -1.2550    -4.3610     2.2450 h1         1 EL7       0.049700
     91 H39         -1.1940    -6.8480     1.0300 h2         1 EL7       0.070700
     92 H40         -2.6740    -3.7590    -0.2040 h1         1 EL7       0.052700
     93 H41         -5.1190    -3.6320    -0.4660 h1         1 EL7       0.036700
     94 H42         -5.2920    -5.2290     0.2670 h1         1 EL7       0.036700
     95 H43         -5.4320    -3.5280     1.8370 ho         1 EL7       0.505000
     96 H44         -3.5760    -4.2670    -2.3230 h1         1 EL7       0.048700
     97 H45         -4.0870    -6.5530    -2.7380 ho         1 EL7       0.522000
     98 H46         -1.2220    -4.6700    -2.0470 h1         1 EL7       0.061700
     99 H47         -2.0310    -7.4710    -1.1580 h1         1 EL7       0.064700
    100 H48          0.1440    -7.8330    -1.1500 ho         1 EL7       0.512000
    101 H49          1.6700    -3.3200    -0.1160 h1         1 EL7       0.078700
    102 H50          2.6940    -4.5190     2.2100 ho         1 EL7       0.439000
    103 H51          3.0740    -2.3040     2.3770 h1         1 EL7       0.071700
    104 H52          4.4130    -3.0720     0.3720 hc         1 EL7       0.047700
    105 H53          3.6400    -1.8220    -0.5800 hc         1 EL7       0.047700
    106 H54          4.5640    -0.0900     1.0160 hc         1 EL7       0.060200
    107 H55          5.3700    -1.3710     1.9030 hc         1 EL7       0.060200
    108 H56          6.6710    -1.9780    -0.1400 hc         1 EL7       0.054700
    109 H57          5.8530    -0.7170    -1.0440 hc         1 EL7       0.054700
    110 H58          8.2290     2.9140    -0.5980 h1         1 EL7       0.053200
    111 H59          8.4780     2.2390     1.0000 h1         1 EL7       0.053200
    112 H60         10.2490     0.7290     0.0940 hc         1 EL7       0.047200
    113 H61          9.9820     1.3750    -1.5160 hc         1 EL7       0.047200
    114 H62         10.6220     3.6550    -0.7080 hc         1 EL7       0.039200
    115 H63         10.8950     3.0140     0.8980 hc         1 EL7       0.039200
    116 H64         12.6920     1.5240     0.0090 hc         1 EL7       0.038700
    117 H65         12.4060     2.1330    -1.6070 hc         1 EL7       0.038700
    118 H66         13.0260     4.4350    -0.8590 hc         1 EL7       0.042700
    119 H67         13.3070     3.8380     0.7630 hc         1 EL7       0.042700
    120 H68         15.1050     2.3340    -0.0880 hc         1 EL7       0.045700
    121 H69         14.8100     2.8950    -1.7230 hc         1 EL7       0.045700
    122 H70         16.0980     3.8730     1.6070 ha         1 EL7       0.110000
    123 H71         17.5860     5.7980     1.9950 ha         1 EL7       0.111000
    124 H72         18.0710     7.3850     0.1560 ha         1 EL7       0.111000
    125 H73         17.0560     7.0200    -2.0740 ha         1 EL7       0.111000
    126 H74         15.5710     5.0950    -2.4570 ha         1 EL7       0.110000
    127 C39        -19.1660     7.7420    -0.1760 c3         1 EL7      -0.088100
    128 H16        -19.6850     6.8200     0.0940 hc         1 EL7       0.031367
    129 H75        -18.9550     8.2810     0.7500 hc         1 EL7       0.031367
    130 H76        -19.8560     8.3510    -0.7620 hc         1 EL7       0.031367
    131 C20         -1.1410    -1.3000     1.5030 c          1 EL7       0.606100
@<TRIPOS>BOND
     1     1    31 1   
     2     1    54 1   
     3     2     3 1   
     4     2     4 1   
     5     2    55 1   
     6     2    56 1   
     7     3     5 1   
     8     3    57 1   
     9     3    58 1   
    10     4    16 1   
    11     4    59 1   
    12     4    60 1   
    13     5    17 1   
    14     5    61 1   
    15     5    62 1   
    16     6    36 1   
    17     6    63 1   
    18     7    17 1   
    19     7    18 1   
    20     7    64 1   
    21     7    65 1   
    22     8    40 1   
    23     8    42 1   
    24     8    66 1   
    25     9    10 1   
    26     9    67 1   
    27     9    68 1   
    28     9   127 1   
    29    10    11 1   
    30    10    69 1   
    31    10    70 1   
    32    11    12 1   
    33    11    71 1   
    34    11    72 1   
    35    12    13 1   
    36    12    73 1   
    37    12    74 1   
    38    13    14 1   
    39    13    75 1   
    40    13    76 1   
    41    14    15 1   
    42    14    77 1   
    43    14    78 1   
    44    15    16 1   
    45    15    79 1   
    46    15    80 1   
    47    16    81 1   
    48    16    82 1   
    49    17    83 1   
    50    17    84 1   
    51    18    85 1   
    52    18    86 1   
    53    18   131 1   
    54    19   131 2   
    55    20    21 1   
    56    20    87 1   
    57    20   131 1   
    58    21    22 1   
    59    21    34 1   
    60    21    88 1   
    61    22    23 1   
    62    22    89 1   
    63    22    90 1   
    64    23    24 1   
    65    24    25 1   
    66    24    32 1   
    67    24    91 1   
    68    25    26 1   
    69    26    27 1   
    70    26    29 1   
    71    26    92 1   
    72    27    28 1   
    73    27    93 1   
    74    27    94 1   
    75    28    95 1   
    76    29    30 1   
    77    29    31 1   
    78    29    96 1   
    79    30    97 1   
    80    31    32 1   
    81    31    98 1   
    82    32    33 1   
    83    32    99 1   
    84    33   100 1   
    85    34    35 1   
    86    34    36 1   
    87    34   101 1   
    88    35   102 1   
    89    36    37 1   
    90    36   103 1   
    91    37    38 1   
    92    37   104 1   
    93    37   105 1   
    94    38    39 1   
    95    38   106 1   
    96    38   107 1   
    97    39    40 1   
    98    39   108 1   
    99    39   109 1   
   100    40    41 2   
   101    42    43 1   
   102    42   110 1   
   103    42   111 1   
   104    43    44 1   
   105    43   112 1   
   106    43   113 1   
   107    44    45 1   
   108    44   114 1   
   109    44   115 1   
   110    45    46 1   
   111    45   116 1   
   112    45   117 1   
   113    46    47 1   
   114    46   118 1   
   115    46   119 1   
   116    47    48 1   
   117    47   120 1   
   118    47   121 1   
   119    48    49 ar  
   120    48    53 ar  
   121    49    50 ar  
   122    49   122 1   
   123    50    51 ar  
   124    50   123 1   
   125    51    52 ar  
   126    51   124 1   
   127    52    53 ar  
   128    52   125 1   
   129    53   126 1   
   130   127   128 1   
   131   127   129 1   
   132   127   130 1   
@<TRIPOS>SUBSTRUCTURE
     1 EL7         1 TEMP              0 ****  ****    0 ROOT
