@<TRIPOS>MOLECULE
EL7
  131   132     1     0     0
SMALL
No Charge or Current Charge


@<TRIPOS>ATOM
      1 O6          -4.1260    -2.8040    -2.6980 oh         1 EL7      -0.674000
      2 C6          -7.5380     1.4350     0.7060 c3         1 EL7      -0.075400
      3 C5          -6.1380     1.6050     1.3380 c3         1 EL7      -0.073400
      4 C7          -8.3430     2.7520     0.6480 c3         1 EL7      -0.073400
      5 C4          -5.3470     0.2810     1.4040 c3         1 EL7      -0.074400
      6 O2           2.0660    -1.1050     0.7890 oh         1 EL7      -0.637000
      7 C2          -3.1920    -0.9060     2.1360 c3         1 EL7      -0.072400
      8 N1           7.5370     0.7840    -0.6760 ns         1 EL7      -0.506900
      9 C38        -17.2340     7.2750    -1.9400 c3         1 EL7      -0.074400
     10 C37        -16.4240     5.9610    -1.8940 c3         1 EL7      -0.075400
     11 C36        -15.0080     6.1450    -1.3050 c3         1 EL7      -0.074400
     12 C35        -14.1960     4.8320    -1.2600 c3         1 EL7      -0.074400
     13 C43        -12.7820     5.0160    -0.6670 c3         1 EL7      -0.073400
     14 C42        -11.9700     3.7030    -0.6210 c3         1 EL7      -0.075400
     15 C41        -10.5590     3.8860    -0.0170 c3         1 EL7      -0.073400
     16 C40         -9.7480     2.5730     0.0340 c3         1 EL7      -0.075400
     17 C3          -3.9560     0.4320     2.0590 c3         1 EL7      -0.074400
     18 C1          -1.7930    -0.7920     2.7860 c3         1 EL7      -0.154400
     19 O           -1.4330    -2.9880     3.7370 o          1 EL7      -0.594100
     20 N2          -0.1570    -2.4100     1.9420 ns         1 EL7      -0.504900
     21 C27          0.5450    -3.6910     1.7460 c3         1 EL7       0.087700
     22 C28         -0.4400    -4.7940     1.2550 c3         1 EL7       0.143600
     23 O4          -1.1120    -4.3150     0.0710 os         1 EL7      -0.476000
     24 C31         -2.0580    -5.2090    -0.5500 c6         1 EL7       0.359300
     25 O9          -3.1310    -5.5270     0.3660 os         1 EL7      -0.451000
     26 C30         -3.9420    -4.3900     0.7700 c6         1 EL7       0.173300
     27 C29         -4.9850    -4.8620     1.8370 c3         1 EL7       0.170600
     28 O8          -4.3860    -5.4730     3.0000 oh         1 EL7      -0.714000
     29 C34         -4.6230    -3.7160    -0.4670 c6         1 EL7       0.146300
     30 O7          -5.5890    -4.5720    -1.1120 oh         1 EL7      -0.715000
     31 C33         -3.5240    -3.3310    -1.5000 c6         1 EL7       0.139300
     32 C32         -2.6230    -4.5570    -1.8560 c6         1 EL7       0.115300
     33 O5          -1.5610    -4.1380    -2.7480 oh         1 EL7      -0.709000
     34 C26          1.7950    -3.5660     0.8050 c3         1 EL7       0.130300
     35 O3           2.5420    -4.7990     0.8890 oh         1 EL7      -0.640000
     36 C25          2.7370    -2.3380     1.1030 c3         1 EL7       0.136300
     37 C24          4.0780    -2.3640     0.3150 c3         1 EL7      -0.109400
     38 C23          5.0450    -1.2040     0.6620 c3         1 EL7      -0.066400
     39 C22          6.4010    -1.3100    -0.0770 c3         1 EL7      -0.158400
     40 C21          7.3460    -0.1650     0.3040 c          1 EL7       0.598100
     41 O1           7.9100    -0.1120     1.3870 o          1 EL7      -0.604100
     42 C19          8.4300     1.9390    -0.5600 c3         1 EL7       0.104000
     43 C18          9.9060     1.5580    -0.7910 c3         1 EL7      -0.100400
     44 C17         10.8620     2.7660    -0.6900 c3         1 EL7      -0.072400
     45 C16         12.3420     2.3860    -0.9170 c3         1 EL7      -0.075400
     46 C15         13.2990     3.5940    -0.8130 c3         1 EL7      -0.073400
     47 C14         14.7790     3.2160    -1.0370 c3         1 EL7      -0.031100
     48 C13         15.7000     4.4240    -0.9330 ca         1 EL7      -0.077300
     49 C12         16.2550     4.7900     0.3100 ca         1 EL7      -0.107500
     50 C11         17.1020     5.9070     0.4070 ca         1 EL7      -0.109500
     51 C10         17.4000     6.6660    -0.7380 ca         1 EL7      -0.112000
     52 C9          16.8480     6.3070    -1.9790 ca         1 EL7      -0.109500
     53 C8          16.0000     5.1900    -2.0760 ca         1 EL7      -0.107500
     54 H1          -3.4110    -2.8290    -3.3760 ho         1 EL7       0.469000
     55 H2          -7.4280     1.0350    -0.3100 hc         1 EL7       0.037700
     56 H3          -8.1040     0.6930     1.2830 hc         1 EL7       0.037700
     57 H4          -5.5660     2.3400     0.7590 hc         1 EL7       0.036700
     58 H5          -6.2480     2.0100     2.3520 hc         1 EL7       0.036700
     59 H6          -8.4430     3.1570     1.6630 hc         1 EL7       0.037200
     60 H7          -7.7830     3.4910     0.0610 hc         1 EL7       0.037200
     61 H8          -5.9300    -0.4570     1.9690 hc         1 EL7       0.039200
     62 H9          -5.2250    -0.1160     0.3890 hc         1 EL7       0.039200
     63 H10          2.3090    -0.8700    -0.1320 ho         1 EL7       0.436000
     64 H11         -3.7950    -1.6290     2.7020 hc         1 EL7       0.059700
     65 H12         -3.0790    -1.3080     1.1210 hc         1 EL7       0.059700
     66 H13          7.0300     0.6510    -1.5440 hn         1 EL7       0.309500
     67 H14        -17.3190     7.6850    -0.9260 hc         1 EL7       0.036700
     68 H15        -16.6920     8.0150    -2.5410 hc         1 EL7       0.036700
     69 H17        -16.9710     5.2220    -1.2950 hc         1 EL7       0.036700
     70 H18        -16.3420     5.5530    -2.9100 hc         1 EL7       0.036700
     71 H19        -14.4620     6.8850    -1.9030 hc         1 EL7       0.036700
     72 H20        -15.0910     6.5510    -0.2890 hc         1 EL7       0.036700
     73 H21        -14.7430     4.0900    -0.6640 hc         1 EL7       0.036700
     74 H22        -14.1100     4.4260    -2.2760 hc         1 EL7       0.036700
     75 H23        -12.2350     5.7570    -1.2630 hc         1 EL7       0.037200
     76 H24        -12.8680     5.4220     0.3490 hc         1 EL7       0.037200
     77 H25        -12.5200     2.9600    -0.0300 hc         1 EL7       0.036700
     78 H26        -11.8770     3.3010    -1.6370 hc         1 EL7       0.036700
     79 H27        -10.0080     4.6280    -0.6090 hc         1 EL7       0.037200
     80 H28        -10.6530     4.2910     0.9980 hc         1 EL7       0.037200
     81 H29         -9.6490     2.1710    -0.9830 hc         1 EL7       0.037200
     82 H30        -10.3050     1.8290     0.6190 hc         1 EL7       0.037200
     83 H31         -3.3620     1.1570     1.4880 hc         1 EL7       0.034200
     84 H32         -4.0740     0.8390     3.0720 hc         1 EL7       0.034200
     85 H33         -1.1820    -0.1200     2.1710 hc         1 EL7       0.051200
     86 H34         -1.9080    -0.3820     3.7960 hc         1 EL7       0.051200
     87 H35          0.0930    -1.6400     1.3310 hn         1 EL7       0.310500
     88 H36          0.9130    -4.0030     2.7320 h1         1 EL7       0.097700
     89 H37          0.1060    -5.7240     1.0470 h1         1 EL7       0.049700
     90 H38         -1.1670    -5.0080     2.0490 h1         1 EL7       0.049700
     91 H39         -1.5380    -6.1400    -0.8230 h2         1 EL7       0.070700
     92 H40         -3.2890    -3.6550     1.2590 h1         1 EL7       0.052700
     93 H41         -5.5800    -3.9890     2.1380 h1         1 EL7       0.036700
     94 H42         -5.6720    -5.5720     1.3570 h1         1 EL7       0.036700
     95 H43         -5.1230    -5.8070     3.5620 ho         1 EL7       0.505000
     96 H44         -5.1150    -2.7910    -0.1270 h1         1 EL7       0.048700
     97 H45         -5.6670    -4.1990    -2.0240 ho         1 EL7       0.522000
     98 H46         -2.8860    -2.5630    -1.0380 h1         1 EL7       0.061700
     99 H47         -3.2470    -5.3130    -2.3560 h1         1 EL7       0.064700
    100 H48         -0.8270    -3.8290    -2.1640 ho         1 EL7       0.512000
    101 H49          1.4240    -3.4410    -0.2210 h1         1 EL7       0.078700
    102 H50          3.0210    -4.8050     1.7460 ho         1 EL7       0.439000
    103 H51          2.9760    -2.3590     2.1760 h1         1 EL7       0.071700
    104 H52          4.6020    -3.3050     0.5230 hc         1 EL7       0.047700
    105 H53          3.8700    -2.3570    -0.7630 hc         1 EL7       0.047700
    106 H54          4.5800    -0.2420     0.4150 hc         1 EL7       0.060200
    107 H55          5.2260    -1.2000     1.7450 hc         1 EL7       0.060200
    108 H56          6.8750    -2.2590     0.2010 hc         1 EL7       0.054700
    109 H57          6.2100    -1.2970    -1.1570 hc         1 EL7       0.054700
    110 H58          8.1260     2.6900    -1.3030 h1         1 EL7       0.053200
    111 H59          8.3130     2.3850     0.4370 h1         1 EL7       0.053200
    112 H60         10.2050     0.8010    -0.0550 hc         1 EL7       0.047200
    113 H61         10.0070     1.0990    -1.7830 hc         1 EL7       0.047200
    114 H62         10.5670     3.5230    -1.4290 hc         1 EL7       0.039200
    115 H63         10.7570     3.2270     0.3000 hc         1 EL7       0.039200
    116 H64         12.6370     1.6290    -0.1800 hc         1 EL7       0.038700
    117 H65         12.4480     1.9270    -1.9080 hc         1 EL7       0.038700
    118 H66         13.0080     4.3510    -1.5520 hc         1 EL7       0.042700
    119 H67         13.1940     4.0550     0.1770 hc         1 EL7       0.042700
    120 H68         15.0720     2.4550    -0.3020 hc         1 EL7       0.045700
    121 H69         14.8850     2.7460    -2.0220 hc         1 EL7       0.045700
    122 H70         16.0270     4.2090     1.2010 ha         1 EL7       0.110000
    123 H71         17.5280     6.1850     1.3680 ha         1 EL7       0.111000
    124 H72         18.0560     7.5300    -0.6630 ha         1 EL7       0.111000
    125 H73         17.0760     6.8950    -2.8660 ha         1 EL7       0.111000
    126 H74         15.5750     4.9200    -3.0400 ha         1 EL7       0.110000
    127 C39        -18.6470     7.0930    -2.5260 c3         1 EL7      -0.088100
    128 H16        -18.5960     6.7140    -3.5540 hc         1 EL7       0.031367
    129 H75        -19.2290     6.3840    -1.9240 hc         1 EL7       0.031367
    130 H76        -19.1810     8.0510    -2.5400 hc         1 EL7       0.031367
    131 C20         -1.1310    -2.1700     2.8810 c          1 EL7       0.606100
@<TRIPOS>BOND
     1     1    31 1   
     2     1    54 1   
     3     2     3 1   
     4     2     4 1   
     5     2    55 1   
     6     2    56 1   
     7     3     5 1   
     8     3    57 1   
     9     3    58 1   
    10     4    16 1   
    11     4    59 1   
    12     4    60 1   
    13     5    17 1   
    14     5    61 1   
    15     5    62 1   
    16     6    36 1   
    17     6    63 1   
    18     7    17 1   
    19     7    18 1   
    20     7    64 1   
    21     7    65 1   
    22     8    40 1   
    23     8    42 1   
    24     8    66 1   
    25     9    10 1   
    26     9    67 1   
    27     9    68 1   
    28     9   127 1   
    29    10    11 1   
    30    10    69 1   
    31    10    70 1   
    32    11    12 1   
    33    11    71 1   
    34    11    72 1   
    35    12    13 1   
    36    12    73 1   
    37    12    74 1   
    38    13    14 1   
    39    13    75 1   
    40    13    76 1   
    41    14    15 1   
    42    14    77 1   
    43    14    78 1   
    44    15    16 1   
    45    15    79 1   
    46    15    80 1   
    47    16    81 1   
    48    16    82 1   
    49    17    83 1   
    50    17    84 1   
    51    18    85 1   
    52    18    86 1   
    53    18   131 1   
    54    19   131 2   
    55    20    21 1   
    56    20    87 1   
    57    20   131 1   
    58    21    22 1   
    59    21    34 1   
    60    21    88 1   
    61    22    23 1   
    62    22    89 1   
    63    22    90 1   
    64    23    24 1   
    65    24    25 1   
    66    24    32 1   
    67    24    91 1   
    68    25    26 1   
    69    26    27 1   
    70    26    29 1   
    71    26    92 1   
    72    27    28 1   
    73    27    93 1   
    74    27    94 1   
    75    28    95 1   
    76    29    30 1   
    77    29    31 1   
    78    29    96 1   
    79    30    97 1   
    80    31    32 1   
    81    31    98 1   
    82    32    33 1   
    83    32    99 1   
    84    33   100 1   
    85    34    35 1   
    86    34    36 1   
    87    34   101 1   
    88    35   102 1   
    89    36    37 1   
    90    36   103 1   
    91    37    38 1   
    92    37   104 1   
    93    37   105 1   
    94    38    39 1   
    95    38   106 1   
    96    38   107 1   
    97    39    40 1   
    98    39   108 1   
    99    39   109 1   
   100    40    41 2   
   101    42    43 1   
   102    42   110 1   
   103    42   111 1   
   104    43    44 1   
   105    43   112 1   
   106    43   113 1   
   107    44    45 1   
   108    44   114 1   
   109    44   115 1   
   110    45    46 1   
   111    45   116 1   
   112    45   117 1   
   113    46    47 1   
   114    46   118 1   
   115    46   119 1   
   116    47    48 1   
   117    47   120 1   
   118    47   121 1   
   119    48    49 ar  
   120    48    53 ar  
   121    49    50 ar  
   122    49   122 1   
   123    50    51 ar  
   124    50   123 1   
   125    51    52 ar  
   126    51   124 1   
   127    52    53 ar  
   128    52   125 1   
   129    53   126 1   
   130   127   128 1   
   131   127   129 1   
   132   127   130 1   
@<TRIPOS>SUBSTRUCTURE
     1 EL7         1 TEMP              0 ****  ****    0 ROOT
