@<TRIPOS>MOLECULE
EL8
   49    50     1     0     0
SMALL
abcg2


@<TRIPOS>ATOM
      1 C4          -1.0980    -1.9820     1.5740 c          1 EL8       0.478300
      2 C8          -3.1590    -2.9450    -0.6740 c3         1 EL8       0.237500
      3 C9          -4.3330    -1.9860    -0.8600 c3         1 EL8      -0.094400
      4 O5           1.0560    -1.0290     2.4530 o          1 EL8      -0.481100
      5 C10         -4.3740    -0.8430     0.1440 c3         1 EL8      -0.078400
      6 O6          -1.8650    -2.4090     2.4050 o          1 EL8      -0.476100
      7 C11         -5.5980     0.0420    -0.0510 c3         1 EL8      -0.068400
      8 C12         -5.6460     1.1870     0.9580 c3         1 EL8      -0.160400
      9 C13         -6.8790     2.0400     0.7780 c          1 EL8       0.599100
     10 C1           0.2620    -1.3350     1.5890 c          1 EL8       0.494300
     11 C2           0.1860    -1.2710     0.1300 cc         1 EL8      -0.062200
     12 C3          -1.0710    -1.8920     0.1040 cd         1 EL8       0.020800
     13 N7          -1.8860    -2.2550    -0.8630 nu         1 EL8      -0.790200
     14 N14         -6.6080     3.3520     0.6320 ns         1 EL8      -0.386400
     15 O15         -8.0110     1.5880     0.7940 o          1 EL8      -0.567100
     16 O16         -7.6040     4.2180     0.2890 oh         1 EL8      -0.428100
     17 C17         -3.2330    -4.1220    -1.6350 c3         1 EL8      -0.108100
     18 N18          0.9800    -0.8790    -0.8790 nu         1 EL8      -0.804000
     19 C19          2.1570    -0.1380    -0.7880 ca         1 EL8       0.320000
     20 C20          3.1100    -0.2850    -1.7960 ca         1 EL8      -0.147000
     21 C21          4.2830     0.4470    -1.7670 ca         1 EL8      -0.064500
     22 C22          4.5080     1.3220    -0.7180 ca         1 EL8       0.055100
     23 C23          3.5670     1.4920     0.2820 ca         1 EL8      -0.064500
     24 C24          2.3840     0.7730     0.2420 ca         1 EL8      -0.147000
     25 O25          5.6630     2.0970    -0.7050 os         1 EL8      -0.399100
     26 C26          6.7440     1.5890    -0.1020 c3         1 EL8       0.512000
     27 F27          6.5350     1.3160     1.1880 f          1 EL8      -0.109333
     28 F28          7.1700     0.4590    -0.6700 f          1 EL8      -0.109333
     29 F29          7.7120     2.4870    -0.1860 f          1 EL8      -0.109333
     30 H1          -3.1680    -3.3220     0.3490 h1         1 EL8       0.082700
     31 H2          -4.3130    -1.5880    -1.8800 hc         1 EL8       0.049700
     32 H3          -5.2540    -2.5730    -0.7800 hc         1 EL8       0.049700
     33 H4          -4.3740    -1.2490     1.1610 hc         1 EL8       0.046700
     34 H5          -3.4710    -0.2310     0.0570 hc         1 EL8       0.046700
     35 H6          -5.5940     0.4510    -1.0660 hc         1 EL8       0.053700
     36 H7          -6.5040    -0.5610     0.0380 hc         1 EL8       0.053700
     37 H8          -5.6700     0.7810     1.9740 hc         1 EL8       0.062200
     38 H9          -4.7350     1.7870     0.8860 hc         1 EL8       0.062200
     39 H10         -1.6500    -2.0010    -1.8130 hn         1 EL8       0.486000
     40 H11         -5.6770     3.6810     0.4210 hn         1 EL8       0.330500
     41 H12         -7.8670     4.6590     1.1060 ho         1 EL8       0.447000
     42 H13         -3.2010    -3.7820    -2.6720 hc         1 EL8       0.047033
     43 H14         -2.4060    -4.8130    -1.4760 hc         1 EL8       0.047033
     44 H15         -4.1650    -4.6690    -1.4930 hc         1 EL8       0.047033
     45 H16          0.7360    -1.2030    -1.8040 hn         1 EL8       0.492000
     46 H17          2.9350    -0.9810    -2.6070 ha         1 EL8       0.128500
     47 H18          5.0080     0.3360    -2.5620 ha         1 EL8       0.136500
     48 H19          3.7330     2.2060     1.0780 ha         1 EL8       0.136500
     49 H20          1.6420     0.9440     1.0070 ha         1 EL8       0.128500
@<TRIPOS>BOND
     1     1     6 2   
     2     1    10 1   
     3     1    12 1   
     4     2     3 1   
     5     2    13 1   
     6     2    17 1   
     7     2    30 1   
     8     3     5 1   
     9     3    31 1   
    10     3    32 1   
    11     4    10 2   
    12     5     7 1   
    13     5    33 1   
    14     5    34 1   
    15     7     8 1   
    16     7    35 1   
    17     7    36 1   
    18     8     9 1   
    19     8    37 1   
    20     8    38 1   
    21     9    14 1   
    22     9    15 2   
    23    10    11 1   
    24    11    12 2   
    25    11    18 1   
    26    12    13 1   
    27    13    39 1   
    28    14    16 1   
    29    14    40 1   
    30    16    41 1   
    31    17    42 1   
    32    17    43 1   
    33    17    44 1   
    34    18    19 1   
    35    18    45 1   
    36    19    20 ar  
    37    19    24 ar  
    38    20    21 ar  
    39    20    46 1   
    40    21    22 ar  
    41    21    47 1   
    42    22    23 ar  
    43    22    25 1   
    44    23    24 ar  
    45    23    48 1   
    46    24    49 1   
    47    25    26 1   
    48    26    27 1   
    49    26    28 1   
    50    26    29 1   
@<TRIPOS>SUBSTRUCTURE
     1 EL8         1 TEMP              0 ****  ****    0 ROOT
