@<TRIPOS>MOLECULE
EL8
   49    50     1     0     0
SMALL
No Charge or Current Charge


@<TRIPOS>ATOM
      1 C4          -1.2730    -2.1530     1.7030 c          1 EL8       0.478300
      2 C8          -3.2670    -3.0270    -0.7330 c3         1 EL8       0.237500
      3 C9          -4.3930    -1.9860    -0.9500 c3         1 EL8      -0.094400
      4 O5           0.8710    -1.1580     2.7170 o          1 EL8      -0.481100
      5 C10         -4.4860    -0.9070     0.1580 c3         1 EL8      -0.078400
      6 O6          -2.1020    -2.5960     2.5000 o          1 EL8      -0.476100
      7 C11         -5.6580     0.0750    -0.0530 c3         1 EL8      -0.068400
      8 C12         -5.7490     1.1530     1.0540 c3         1 EL8      -0.160400
      9 C13         -6.9230     2.1120     0.8160 c          1 EL8       0.599100
     10 C1           0.1120    -1.4720     1.7990 c          1 EL8       0.494300
     11 C2           0.1080    -1.4080     0.3040 cc         1 EL8      -0.062200
     12 C3          -1.1310    -2.0230     0.2230 cd         1 EL8       0.020800
     13 N7          -1.9490    -2.3840    -0.8380 nu         1 EL8      -0.790200
     14 N14         -6.5650     3.3900     0.4030 ns         1 EL8      -0.386400
     15 O15         -8.0860     1.7850     1.0160 o          1 EL8      -0.567100
     16 O16         -7.5590     4.3210    -0.0910 oh         1 EL8      -0.428100
     17 C17         -3.3350    -4.1750    -1.7570 c3         1 EL8      -0.108100
     18 N18          1.0450    -0.9300    -0.6170 nu         1 EL8      -0.804000
     19 C19          2.2290    -0.1990    -0.4640 ca         1 EL8       0.320000
     20 C20          3.2870    -0.4030    -1.3650 ca         1 EL8      -0.147000
     21 C21          4.4850     0.3250    -1.2410 ca         1 EL8      -0.064500
     22 C22          4.6290     1.2790    -0.2070 ca         1 EL8       0.055100
     23 C23          3.5620     1.4890     0.6840 ca         1 EL8      -0.064500
     24 C24          2.3680     0.7570     0.5540 ca         1 EL8      -0.147000
     25 O25          5.7730     2.0360    -0.0170 os         1 EL8      -0.399100
     26 C26          6.9530     1.9420    -0.8430 c3         1 EL8       0.512000
     27 F27          7.4980     0.7040    -0.8130 f          1 EL8      -0.109333
     28 F28          6.6960     2.2530    -2.1350 f          1 EL8      -0.109333
     29 F29          7.9040     2.8000    -0.4140 f          1 EL8      -0.109333
     30 H1          -3.3940    -3.4670     0.2660 h1         1 EL8       0.082700
     31 H2          -4.2590    -1.4990    -1.9240 hc         1 EL8       0.049700
     32 H3          -5.3520    -2.5160    -0.9950 hc         1 EL8       0.049700
     33 H4          -4.5990    -1.4000     1.1320 hc         1 EL8       0.046700
     34 H5          -3.5490    -0.3380     0.1940 hc         1 EL8       0.046700
     35 H6          -5.5460     0.5680    -1.0280 hc         1 EL8       0.053700
     36 H7          -6.6000    -0.4880    -0.0870 hc         1 EL8       0.053700
     37 H8          -5.8990     0.6500     2.0160 hc         1 EL8       0.062200
     38 H9          -4.8060     1.7130     1.0720 hc         1 EL8       0.062200
     39 H10         -1.6240    -2.1300    -1.7740 hn         1 EL8       0.486000
     40 H11         -5.6020     3.5700     0.1220 hn         1 EL8       0.330500
     41 H12         -7.3730     5.1490     0.4130 ho         1 EL8       0.447000
     42 H13         -3.2330    -3.7970    -2.7820 hc         1 EL8       0.047033
     43 H14         -2.5360    -4.9030    -1.5740 hc         1 EL8       0.047033
     44 H15         -4.2940    -4.7010    -1.6800 hc         1 EL8       0.047033
     45 H16          0.9030    -1.2730    -1.5710 hn         1 EL8       0.492000
     46 H17          3.1870    -1.1360    -2.1610 ha         1 EL8       0.128500
     47 H18          5.2810     0.1320    -1.9540 ha         1 EL8       0.136500
     48 H19          3.6600     2.2270     1.4760 ha         1 EL8       0.136500
     49 H20          1.5480     0.9490     1.2390 ha         1 EL8       0.128500
@<TRIPOS>BOND
     1     1     6 2   
     2     1    10 1   
     3     1    12 1   
     4     2     3 1   
     5     2    13 1   
     6     2    17 1   
     7     2    30 1   
     8     3     5 1   
     9     3    31 1   
    10     3    32 1   
    11     4    10 2   
    12     5     7 1   
    13     5    33 1   
    14     5    34 1   
    15     7     8 1   
    16     7    35 1   
    17     7    36 1   
    18     8     9 1   
    19     8    37 1   
    20     8    38 1   
    21     9    14 1   
    22     9    15 2   
    23    10    11 1   
    24    11    12 2   
    25    11    18 1   
    26    12    13 1   
    27    13    39 1   
    28    14    16 1   
    29    14    40 1   
    30    16    41 1   
    31    17    42 1   
    32    17    43 1   
    33    17    44 1   
    34    18    19 1   
    35    18    45 1   
    36    19    20 ar  
    37    19    24 ar  
    38    20    21 ar  
    39    20    46 1   
    40    21    22 ar  
    41    21    47 1   
    42    22    23 ar  
    43    22    25 1   
    44    23    24 ar  
    45    23    48 1   
    46    24    49 1   
    47    25    26 1   
    48    26    27 1   
    49    26    28 1   
    50    26    29 1   
@<TRIPOS>SUBSTRUCTURE
     1 EL8         1 TEMP              0 ****  ****    0 ROOT
