@<TRIPOS>MOLECULE
ELA
   53    52     1     0     0
SMALL
No Charge or Current Charge


@<TRIPOS>ATOM
      1 CA           0.5960     0.4250    -7.6780 c3         1 ELA      -0.204400
      2 C            1.8590     0.0160    -8.4580 c          1 ELA       0.717000
      3 O            2.8120     0.7800    -8.4560 o          1 ELA      -0.743500
      4 C3           0.6940    -0.0590    -6.2110 c3         1 ELA      -0.053400
      5 C4          -0.5420     0.3160    -5.3630 c3         1 ELA      -0.079400
      6 C5          -0.4420    -0.1680    -3.8990 c3         1 ELA      -0.074400
      7 C6          -1.6780     0.2070    -3.0520 c3         1 ELA      -0.076400
      8 C7          -1.5770    -0.2770    -1.5890 c3         1 ELA      -0.071400
      9 C8          -2.8100     0.0970    -0.7400 c3         1 ELA      -0.045200
     10 C9          -2.6860    -0.3850     0.6900 c2         1 ELA      -0.203200
     11 C10         -2.6070     0.4080     1.7700 c2         1 ELA      -0.234200
     12 C11         -2.4850    -0.0730     3.2010 c3         1 ELA      -0.037200
     13 C12         -1.1370     0.3280     3.8360 c3         1 ELA      -0.072400
     14 C13         -0.9850    -0.1550     5.2950 c3         1 ELA      -0.075400
     15 C14          0.3650     0.2470     5.9270 c3         1 ELA      -0.074400
     16 C15          0.5170    -0.2370     7.3860 c3         1 ELA      -0.074400
     17 C16          1.8680     0.1650     8.0180 c3         1 ELA      -0.076400
     18 C17          2.0210    -0.3190     9.4770 c3         1 ELA      -0.075400
     19 C18          3.3680     0.0820    10.1080 c3         1 ELA      -0.088100
     20 OXT          1.8700    -1.0760    -9.0060 o          1 ELA      -0.743500
     21 HA1         -0.2910    -0.0660    -8.0980 hc         1 ELA       0.014200
     22 HA2          0.5130     1.5180    -7.6290 hc         1 ELA       0.014200
     23 H31          1.5910     0.3710    -5.7480 hc         1 ELA       0.038200
     24 H32          0.8200    -1.1490    -6.1990 hc         1 ELA       0.038200
     25 H41         -1.4400    -0.1150    -5.8230 hc         1 ELA       0.023700
     26 H42         -0.6680     1.4060    -5.3730 hc         1 ELA       0.023700
     27 H51          0.4550     0.2630    -3.4380 hc         1 ELA       0.034200
     28 H52         -0.3160    -1.2580    -3.8890 hc         1 ELA       0.034200
     29 H61         -2.5750    -0.2240    -3.5130 hc         1 ELA       0.032200
     30 H62         -1.8040     1.2970    -3.0630 hc         1 ELA       0.032200
     31 H71         -0.6810     0.1550    -1.1260 hc         1 ELA       0.038200
     32 H72         -1.4510    -1.3670    -1.5770 hc         1 ELA       0.038200
     33 H81         -3.7090    -0.3350    -1.1980 hc         1 ELA       0.042200
     34 H82         -2.9420     1.1860    -0.7650 hc         1 ELA       0.042200
     35 H9          -2.6650    -1.4710     0.7990 ha         1 ELA       0.162000
     36 H10         -2.6300     1.4950     1.6610 ha         1 ELA       0.165000
     37 H111        -2.5890    -1.1640     3.2460 hc         1 ELA       0.037700
     38 H112        -3.3050     0.3420     3.8010 hc         1 ELA       0.037700
     39 H121        -1.0370     1.4200     3.8050 hc         1 ELA       0.042200
     40 H122        -0.3210    -0.0860     3.2310 hc         1 ELA       0.042200
     41 H131        -1.0860    -1.2480     5.3250 hc         1 ELA       0.034700
     42 H132        -1.8030     0.2580     5.8980 hc         1 ELA       0.034700
     43 H141         0.4650     1.3390     5.8980 hc         1 ELA       0.038700
     44 H142         1.1830    -0.1660     5.3230 hc         1 ELA       0.038700
     45 H151         0.4170    -1.3290     7.4150 hc         1 ELA       0.035200
     46 H152        -0.3000     0.1760     7.9900 hc         1 ELA       0.035200
     47 H161         1.9680     1.2570     7.9890 hc         1 ELA       0.037700
     48 H162         2.6860    -0.2480     7.4150 hc         1 ELA       0.037700
     49 H171         1.9230    -1.4110     9.5100 hc         1 ELA       0.035200
     50 H172         1.2060     0.0940    10.0840 hc         1 ELA       0.035200
     51 H181         3.4300    -0.2820    11.1400 hc         1 ELA       0.030700
     52 H182         4.2040    -0.3460     9.5420 hc         1 ELA       0.030700
     53 H183         3.4800     1.1730    10.1220 hc         1 ELA       0.030700
@<TRIPOS>BOND
     1     1     2 1   
     2     1     4 1   
     3     1    21 1   
     4     1    22 1   
     5     2     3 1   
     6     2    20 1   
     7     4     5 1   
     8     4    23 1   
     9     4    24 1   
    10     5     6 1   
    11     5    25 1   
    12     5    26 1   
    13     6     7 1   
    14     6    27 1   
    15     6    28 1   
    16     7     8 1   
    17     7    29 1   
    18     7    30 1   
    19     8     9 1   
    20     8    31 1   
    21     8    32 1   
    22     9    10 1   
    23     9    33 1   
    24     9    34 1   
    25    10    11 2   
    26    10    35 1   
    27    11    12 1   
    28    11    36 1   
    29    12    13 1   
    30    12    37 1   
    31    12    38 1   
    32    13    14 1   
    33    13    39 1   
    34    13    40 1   
    35    14    15 1   
    36    14    41 1   
    37    14    42 1   
    38    15    16 1   
    39    15    43 1   
    40    15    44 1   
    41    16    17 1   
    42    16    45 1   
    43    16    46 1   
    44    17    18 1   
    45    17    47 1   
    46    17    48 1   
    47    18    19 1   
    48    18    49 1   
    49    18    50 1   
    50    19    51 1   
    51    19    52 1   
    52    19    53 1   
@<TRIPOS>SUBSTRUCTURE
     1 ELA         1 TEMP              0 ****  ****    0 ROOT
