@<TRIPOS>MOLECULE
ELA
   53    52     1     0     0
SMALL
abcg2


@<TRIPOS>ATOM
      1 CA           0.3120     0.3500    -7.7700 c3         1 ELA      -0.204400
      2 C            1.4560     0.1120    -8.7710 c          1 ELA       0.717000
      3 O            2.5430    -0.3090    -8.3280 o          1 ELA      -0.743500
      4 C3           0.5880    -0.0300    -6.3250 c3         1 ELA      -0.053400
      5 C4          -0.5990     0.2520    -5.4110 c3         1 ELA      -0.079400
      6 C5          -0.3590    -0.1380    -3.9580 c3         1 ELA      -0.074400
      7 C6          -1.5550     0.1580    -3.0610 c3         1 ELA      -0.076400
      8 C7          -1.3500    -0.2540    -1.6090 c3         1 ELA      -0.071400
      9 C8          -2.5500     0.0950    -0.7290 c3         1 ELA      -0.045200
     10 C9          -2.4230    -0.4160     0.6710 c2         1 ELA      -0.203200
     11 C10         -2.3470     0.3460     1.7590 c2         1 ELA      -0.234200
     12 C11         -2.2280    -0.1590     3.1620 c3         1 ELA      -0.037200
     13 C12         -0.9090     0.2280     3.8310 c3         1 ELA      -0.072400
     14 C13         -0.8670    -0.1600     5.3030 c3         1 ELA      -0.075400
     15 C14          0.4520     0.1760     5.9870 c3         1 ELA      -0.074400
     16 C15          0.4560    -0.1690     7.4710 c3         1 ELA      -0.074400
     17 C16          1.7750     0.1480     8.1650 c3         1 ELA      -0.076400
     18 C17          1.7640    -0.1760     9.6540 c3         1 ELA      -0.075400
     19 C18          3.0850     0.1410    10.3400 c3         1 ELA      -0.088100
     20 OXT          1.1970     0.3700    -9.9660 o          1 ELA      -0.743500
     21 HA1         -0.5730    -0.1890    -8.1290 hc         1 ELA       0.014200
     22 HA2          0.0320     1.4090    -7.8220 hc         1 ELA       0.014200
     23 H31          1.4640     0.5140    -5.9570 hc         1 ELA       0.038200
     24 H32          0.8480    -1.0910    -6.2620 hc         1 ELA       0.038200
     25 H41         -1.4810    -0.2810    -5.7860 hc         1 ELA       0.023700
     26 H42         -0.8510     1.3170    -5.4620 hc         1 ELA       0.023700
     27 H51          0.5210     0.3920    -3.5780 hc         1 ELA       0.034200
     28 H52         -0.1170    -1.2050    -3.9020 hc         1 ELA       0.034200
     29 H61         -2.4390    -0.3530    -3.4580 hc         1 ELA       0.032200
     30 H62         -1.7820     1.2290    -3.1060 hc         1 ELA       0.032200
     31 H71         -0.4560     0.2330    -1.2070 hc         1 ELA       0.038200
     32 H72         -1.1590    -1.3320    -1.5590 hc         1 ELA       0.038200
     33 H81         -3.4520    -0.3300    -1.1850 hc         1 ELA       0.042200
     34 H82         -2.6900     1.1800    -0.7180 hc         1 ELA       0.042200
     35 H9          -2.3870    -1.4980     0.7860 ha         1 ELA       0.162000
     36 H10         -2.3690     1.4280     1.6410 ha         1 ELA       0.165000
     37 H111        -2.3420    -1.2470     3.1800 hc         1 ELA       0.037700
     38 H112        -3.0530     0.2480     3.7590 hc         1 ELA       0.037700
     39 H121        -0.7520     1.3080     3.7350 hc         1 ELA       0.042200
     40 H122        -0.0810    -0.2490     3.2970 hc         1 ELA       0.042200
     41 H131        -1.0610    -1.2340     5.4020 hc         1 ELA       0.034700
     42 H132        -1.6860     0.3430     5.8290 hc         1 ELA       0.034700
     43 H141         0.6660     1.2440     5.8630 hc         1 ELA       0.038700
     44 H142         1.2680    -0.3560     5.4870 hc         1 ELA       0.038700
     45 H151         0.2280    -1.2330     7.5960 hc         1 ELA       0.035200
     46 H152        -0.3550     0.3730     7.9700 hc         1 ELA       0.035200
     47 H161         2.0120     1.2100     8.0290 hc         1 ELA       0.037700
     48 H162         2.5850    -0.4060     7.6780 hc         1 ELA       0.037700
     49 H171         1.5230    -1.2350     9.7910 hc         1 ELA       0.035200
     50 H172         0.9550     0.3810    10.1370 hc         1 ELA       0.035200
     51 H181         3.0550    -0.1020    11.4030 hc         1 ELA       0.030700
     52 H182         3.9060    -0.4240     9.8940 hc         1 ELA       0.030700
     53 H183         3.3300     1.2010    10.2510 hc         1 ELA       0.030700
@<TRIPOS>BOND
     1     1     2 1   
     2     1     4 1   
     3     1    21 1   
     4     1    22 1   
     5     2     3 1   
     6     2    20 1   
     7     4     5 1   
     8     4    23 1   
     9     4    24 1   
    10     5     6 1   
    11     5    25 1   
    12     5    26 1   
    13     6     7 1   
    14     6    27 1   
    15     6    28 1   
    16     7     8 1   
    17     7    29 1   
    18     7    30 1   
    19     8     9 1   
    20     8    31 1   
    21     8    32 1   
    22     9    10 1   
    23     9    33 1   
    24     9    34 1   
    25    10    11 2   
    26    10    35 1   
    27    11    12 1   
    28    11    36 1   
    29    12    13 1   
    30    12    37 1   
    31    12    38 1   
    32    13    14 1   
    33    13    39 1   
    34    13    40 1   
    35    14    15 1   
    36    14    41 1   
    37    14    42 1   
    38    15    16 1   
    39    15    43 1   
    40    15    44 1   
    41    16    17 1   
    42    16    45 1   
    43    16    46 1   
    44    17    18 1   
    45    17    47 1   
    46    17    48 1   
    47    18    19 1   
    48    18    49 1   
    49    18    50 1   
    50    19    51 1   
    51    19    52 1   
    52    19    53 1   
@<TRIPOS>SUBSTRUCTURE
     1 ELA         1 TEMP              0 ****  ****    0 ROOT
