@<TRIPOS>MOLECULE
ELD
   55    54     1     0     0
SMALL
abcg2


@<TRIPOS>ATOM
      1 C1          -8.4880     1.3650    -0.5400 c          1 ELD       0.603100
      2 N1          -9.1210     2.5410    -0.4070 nt         1 ELD      -0.613000
      3 O2          -8.8880     0.4830    -1.2880 o          1 ELD      -0.606100
      4 C2          -7.2540     1.1990     0.3220 c3         1 ELD      -0.159400
      5 C3          -6.1750     0.3400    -0.3240 c3         1 ELD      -0.065400
      6 C4          -4.9640     0.1660     0.5850 c3         1 ELD      -0.076400
      7 C5          -3.8770    -0.7000    -0.0370 c3         1 ELD      -0.074400
      8 C6          -2.6590    -0.8750     0.8620 c3         1 ELD      -0.075400
      9 C7          -1.6000    -1.7860     0.2550 c3         1 ELD      -0.073400
     10 C8          -0.3600    -1.9400     1.1400 c3         1 ELD      -0.042200
     11 C9           0.5920    -2.9540     0.5850 c2         1 ELD      -0.218200
     12 C10          1.7450    -2.7290    -0.0440 c2         1 ELD      -0.214200
     13 C11          2.4010    -1.4120    -0.3190 c3         1 ELD      -0.043200
     14 C12          3.8770    -1.4050     0.0780 c3         1 ELD      -0.073400
     15 C13          4.5840    -0.1050    -0.2810 c3         1 ELD      -0.075400
     16 C14          6.0710    -0.1200     0.0510 c3         1 ELD      -0.074400
     17 C15          6.7850     1.1720    -0.3240 c3         1 ELD      -0.074400
     18 C16          8.2770     1.1450    -0.0200 c3         1 ELD      -0.075400
     19 C17          8.9960     2.4330    -0.4040 c3         1 ELD      -0.075400
     20 C18         10.4880     2.3900    -0.1020 c3         1 ELD      -0.088100
     21 HN11        -8.7850     3.2600     0.2090 hn         1 ELD       0.312000
     22 HN12        -9.9780     2.7200    -0.9050 hn         1 ELD       0.312000
     23 H21         -7.5730     0.7370     1.2630 hc         1 ELD       0.053200
     24 H22         -6.8440     2.1760     0.5920 hc         1 ELD       0.053200
     25 H31         -5.8600     0.7940    -1.2680 hc         1 ELD       0.055200
     26 H32         -6.5860    -0.6410    -0.5740 hc         1 ELD       0.055200
     27 H41         -5.2810    -0.2790     1.5340 hc         1 ELD       0.035200
     28 H42         -4.5490     1.1480     0.8350 hc         1 ELD       0.035200
     29 H51         -3.5650    -0.2620    -0.9910 hc         1 ELD       0.040700
     30 H52         -4.2930    -1.6850    -0.2780 hc         1 ELD       0.040700
     31 H61         -2.9740    -1.2850     1.8280 hc         1 ELD       0.036200
     32 H62         -2.2210     0.1060     1.0770 hc         1 ELD       0.036200
     33 H71         -1.2940    -1.3960    -0.7220 hc         1 ELD       0.040200
     34 H72         -2.0380    -2.7710     0.0660 hc         1 ELD       0.040200
     35 H81         -0.6780    -2.2560     2.1390 hc         1 ELD       0.042700
     36 H82          0.1190    -0.9660     1.2610 hc         1 ELD       0.042700
     37 H9           0.2680    -3.9870     0.6800 ha         1 ELD       0.165000
     38 H10          2.2880    -3.5950    -0.4150 ha         1 ELD       0.164000
     39 H111         1.8790    -0.5950     0.1840 hc         1 ELD       0.044700
     40 H112         2.3310    -1.1990    -1.3930 hc         1 ELD       0.044700
     41 H121         4.3850    -2.2410    -0.4140 hc         1 ELD       0.039200
     42 H122         3.9660    -1.5870     1.1540 hc         1 ELD       0.039200
     43 H131         4.1010     0.7300     0.2380 hc         1 ELD       0.037200
     44 H132         4.4560     0.0910    -1.3520 hc         1 ELD       0.037200
     45 H141         6.5470    -0.9600    -0.4660 hc         1 ELD       0.037700
     46 H142         6.2020    -0.3110     1.1220 hc         1 ELD       0.037700
     47 H151         6.3200     2.0120     0.2050 hc         1 ELD       0.036700
     48 H152         6.6380     1.3710    -1.3920 hc         1 ELD       0.036700
     49 H161         8.7390     0.3030    -0.5470 hc         1 ELD       0.036700
     50 H162         8.4270     0.9500     1.0480 hc         1 ELD       0.036700
     51 H171         8.5370     3.2750     0.1240 hc         1 ELD       0.036700
     52 H172         8.8440     2.6270    -1.4700 hc         1 ELD       0.036700
     53 H181        10.9820     3.3210    -0.3830 hc         1 ELD       0.031367
     54 H182        10.6690     2.2260     0.9620 hc         1 ELD       0.031367
     55 H183        10.9750     1.5790    -0.6460 hc         1 ELD       0.031367
@<TRIPOS>BOND
     1     1     2 1   
     2     1     3 2   
     3     1     4 1   
     4     2    21 1   
     5     2    22 1   
     6     4     5 1   
     7     4    23 1   
     8     4    24 1   
     9     5     6 1   
    10     5    25 1   
    11     5    26 1   
    12     6     7 1   
    13     6    27 1   
    14     6    28 1   
    15     7     8 1   
    16     7    29 1   
    17     7    30 1   
    18     8     9 1   
    19     8    31 1   
    20     8    32 1   
    21     9    10 1   
    22     9    33 1   
    23     9    34 1   
    24    10    11 1   
    25    10    35 1   
    26    10    36 1   
    27    11    12 2   
    28    11    37 1   
    29    12    13 1   
    30    12    38 1   
    31    13    14 1   
    32    13    39 1   
    33    13    40 1   
    34    14    15 1   
    35    14    41 1   
    36    14    42 1   
    37    15    16 1   
    38    15    43 1   
    39    15    44 1   
    40    16    17 1   
    41    16    45 1   
    42    16    46 1   
    43    17    18 1   
    44    17    47 1   
    45    17    48 1   
    46    18    19 1   
    47    18    49 1   
    48    18    50 1   
    49    19    20 1   
    50    19    51 1   
    51    19    52 1   
    52    20    53 1   
    53    20    54 1   
    54    20    55 1   
@<TRIPOS>SUBSTRUCTURE
     1 ELD         1 TEMP              0 ****  ****    0 ROOT
