@<TRIPOS>MOLECULE
ELD
   55    54     1     0     0
SMALL
No Charge or Current Charge


@<TRIPOS>ATOM
      1 C1          -7.6160     2.1810    -0.0640 c          1 ELD       0.603100
      2 N1          -7.5440     3.1920    -0.9550 nt         1 ELD      -0.613000
      3 O2          -8.6580     1.5660     0.0900 o          1 ELD      -0.606100
      4 C2          -6.3340     1.8740     0.7150 c3         1 ELD      -0.159400
      5 C3          -5.5450     0.7110     0.0670 c3         1 ELD      -0.065400
      6 C4          -4.2400     0.3730     0.8210 c3         1 ELD      -0.076400
      7 C5          -3.4530    -0.7890     0.1750 c3         1 ELD      -0.074400
      8 C6          -2.1480    -1.1260     0.9290 c3         1 ELD      -0.075400
      9 C7          -1.3600    -2.2870     0.2840 c3         1 ELD      -0.073400
     10 C8          -0.0540    -2.6240     1.0330 c3         1 ELD      -0.042200
     11 C9           0.7060    -3.7590     0.3730 c2         1 ELD      -0.218200
     12 C10          1.7260    -3.6470    -0.4960 c2         1 ELD      -0.214200
     13 C11          2.3180    -2.3610    -1.0430 c3         1 ELD      -0.043200
     14 C12          3.5700    -1.9190    -0.2580 c3         1 ELD      -0.073400
     15 C13          4.1850    -0.6050    -0.7870 c3         1 ELD      -0.075400
     16 C14          5.4370    -0.1620     0.0020 c3         1 ELD      -0.074400
     17 C15          6.0510     1.1520    -0.5260 c3         1 ELD      -0.074400
     18 C16          7.3020     1.5950     0.2640 c3         1 ELD      -0.075400
     19 C17          7.9170     2.9100    -0.2650 c3         1 ELD      -0.075400
     20 C18          9.1650     3.3520     0.5230 c3         1 ELD      -0.088100
     21 HN11        -6.6790     3.6960    -1.0780 hn         1 ELD       0.312000
     22 HN12        -8.3620     3.4350    -1.4940 hn         1 ELD       0.312000
     23 H21         -6.5940     1.5940     1.7420 hc         1 ELD       0.053200
     24 H22         -5.6820     2.7560     0.7130 hc         1 ELD       0.053200
     25 H31         -5.3050     0.9720    -0.9720 hc         1 ELD       0.055200
     26 H32         -6.1830    -0.1820     0.0320 hc         1 ELD       0.055200
     27 H41         -4.4810     0.1110     1.8590 hc         1 ELD       0.035200
     28 H42         -3.6020     1.2650     0.8550 hc         1 ELD       0.035200
     29 H51         -3.2120    -0.5280    -0.8630 hc         1 ELD       0.040700
     30 H52         -4.0900    -1.6810     0.1410 hc         1 ELD       0.040700
     31 H61         -2.3890    -1.3880     1.9670 hc         1 ELD       0.036200
     32 H62         -1.5110    -0.2340     0.9630 hc         1 ELD       0.036200
     33 H71         -1.1190    -2.0260    -0.7540 hc         1 ELD       0.040200
     34 H72         -1.9950    -3.1810     0.2490 hc         1 ELD       0.040200
     35 H81         -0.2900    -2.8930     2.0700 hc         1 ELD       0.042700
     36 H82          0.5670    -1.7220     1.0900 hc         1 ELD       0.042700
     37 H9           0.3670    -4.7510     0.6790 ha         1 ELD       0.165000
     38 H10          2.1980    -4.5490    -0.8910 ha         1 ELD       0.164000
     39 H111         1.5770    -1.5530    -1.0180 hc         1 ELD       0.044700
     40 H112         2.5810    -2.4960    -2.0990 hc         1 ELD       0.044700
     41 H121         4.3230    -2.7160    -0.3040 hc         1 ELD       0.039200
     42 H122         3.3030    -1.7920     0.7990 hc         1 ELD       0.039200
     43 H131         3.4310     0.1900    -0.7410 hc         1 ELD       0.037200
     44 H132         4.4520    -0.7320    -1.8440 hc         1 ELD       0.037200
     45 H141         6.1920    -0.9570    -0.0440 hc         1 ELD       0.037700
     46 H142         5.1700    -0.0360     1.0590 hc         1 ELD       0.037700
     47 H151         5.2960     1.9470    -0.4800 hc         1 ELD       0.036700
     48 H152         6.3180     1.0260    -1.5830 hc         1 ELD       0.036700
     49 H161         8.0580     0.8010     0.2170 hc         1 ELD       0.036700
     50 H162         7.0350     1.7220     1.3200 hc         1 ELD       0.036700
     51 H171         7.1650     3.7080    -0.2180 hc         1 ELD       0.036700
     52 H172         8.1870     2.7870    -1.3210 hc         1 ELD       0.036700
     53 H181         9.5640     4.2870     0.1130 hc         1 ELD       0.031367
     54 H182         8.9190     3.5180     1.5790 hc         1 ELD       0.031367
     55 H183         9.9510     2.5890     0.4660 hc         1 ELD       0.031367
@<TRIPOS>BOND
     1     1     2 1   
     2     1     3 2   
     3     1     4 1   
     4     2    21 1   
     5     2    22 1   
     6     4     5 1   
     7     4    23 1   
     8     4    24 1   
     9     5     6 1   
    10     5    25 1   
    11     5    26 1   
    12     6     7 1   
    13     6    27 1   
    14     6    28 1   
    15     7     8 1   
    16     7    29 1   
    17     7    30 1   
    18     8     9 1   
    19     8    31 1   
    20     8    32 1   
    21     9    10 1   
    22     9    33 1   
    23     9    34 1   
    24    10    11 1   
    25    10    35 1   
    26    10    36 1   
    27    11    12 2   
    28    11    37 1   
    29    12    13 1   
    30    12    38 1   
    31    13    14 1   
    32    13    39 1   
    33    13    40 1   
    34    14    15 1   
    35    14    41 1   
    36    14    42 1   
    37    15    16 1   
    38    15    43 1   
    39    15    44 1   
    40    16    17 1   
    41    16    45 1   
    42    16    46 1   
    43    17    18 1   
    44    17    47 1   
    45    17    48 1   
    46    18    19 1   
    47    18    49 1   
    48    18    50 1   
    49    19    20 1   
    50    19    51 1   
    51    19    52 1   
    52    20    53 1   
    53    20    54 1   
    54    20    55 1   
@<TRIPOS>SUBSTRUCTURE
     1 ELD         1 TEMP              0 ****  ****    0 ROOT
