@<TRIPOS>MOLECULE
ELF
   26    26     1     0     0
SMALL
No Charge or Current Charge


@<TRIPOS>ATOM
      1 C6         -21.6320    24.9730    -0.2730 c6         1 ELF      -0.092400
      2 C11        -21.3970    21.0640     2.2840 c3         1 ELF       0.051500
      3 C13        -21.6320    23.5700     0.3610 c6         1 ELF      -0.072400
      4 C15        -19.3340    24.3340     1.3410 c          1 ELF       0.564000
      5 C17        -20.2300    22.0080     1.8740 c3         1 ELF      -0.055400
      6 C24        -20.9120    19.5770     2.3300 c          1 ELF       0.530900
      7 C25        -20.6220    23.4900     1.5450 c6         1 ELF      -0.128700
      8 C27        -20.2300    25.3040    -0.8220 c6         1 ELF       0.114000
      9 N3         -22.0680    21.5580     3.5400 n8         1 ELF      -1.009200
     10 N4         -19.1680    25.0020     0.1480 ns         1 ELF      -0.508900
     11 O3         -21.5990    18.6280     1.9640 o          1 ELF      -0.499100
     12 O4         -18.4780    24.4280     2.2070 o          1 ELF      -0.583000
     13 H1         -21.9250    25.7210     0.4770 hc         1 ELF       0.053700
     14 H2         -22.3730    25.0290    -1.0820 hc         1 ELF       0.053700
     15 H3         -22.1430    21.0900     1.4770 h1         1 ELF       0.083700
     16 H4         -22.6430    23.3160     0.7080 hc         1 ELF       0.051700
     17 H5         -21.3710    22.8320    -0.4100 hc         1 ELF       0.051700
     18 H6         -19.7250    21.5740     1.0010 hc         1 ELF       0.060200
     19 H7         -19.4850    21.9920     2.6800 hc         1 ELF       0.060200
     20 H8         -19.8840    19.4170     2.7270 h4         1 ELF      -0.020800
     21 H9         -21.0860    23.8930     2.4540 hc         1 ELF       0.087700
     22 H10        -20.0410    24.7100    -1.7270 h1         1 ELF       0.039200
     23 H11        -20.1740    26.3670    -1.0970 h1         1 ELF       0.039200
     24 H12        -22.8510    20.9350     3.7840 hn         1 ELF       0.407000
     25 H14        -21.4290    21.4640     4.3410 hn         1 ELF       0.407000
     26 H15        -18.2900    25.4980     0.0520 hn         1 ELF       0.314500
@<TRIPOS>BOND
     1     1     3 1   
     2     1     8 1   
     3     1    13 1   
     4     1    14 1   
     5     2     5 1   
     6     2     6 1   
     7     2     9 1   
     8     2    15 1   
     9     3     7 1   
    10     3    16 1   
    11     3    17 1   
    12     4     7 1   
    13     4    10 1   
    14     4    12 2   
    15     5     7 1   
    16     5    18 1   
    17     5    19 1   
    18     6    11 2   
    19     6    20 1   
    20     7    21 1   
    21     8    10 1   
    22     8    22 1   
    23     8    23 1   
    24     9    24 1   
    25     9    25 1   
    26    10    26 1   
@<TRIPOS>SUBSTRUCTURE
     1 ELF         1 TEMP              0 ****  ****    0 ROOT
