@<TRIPOS>MOLECULE
ELF
   26    26     1     0     0
SMALL
abcg2


@<TRIPOS>ATOM
      1 C6         -21.6740    24.9200    -0.1270 c6         1 ELF      -0.092400
      2 C11        -21.4010    21.0820     2.1680 c3         1 ELF       0.051500
      3 C13        -21.5390    23.4790     0.3300 c6         1 ELF      -0.072400
      4 C15        -19.2340    24.1450     1.1830 c          1 ELF       0.564000
      5 C17        -20.1740    21.9160     1.7990 c3         1 ELF      -0.055400
      6 C24        -20.9320    19.7030     2.5700 c          1 ELF       0.530900
      7 C25        -20.5140    23.3670     1.4540 c6         1 ELF      -0.128700
      8 C27        -20.3510    25.4090    -0.6770 c6         1 ELF       0.114000
      9 N3         -22.1430    21.7070     3.2470 n8         1 ELF      -1.009200
     10 N4         -19.2640    25.0910     0.2310 ns         1 ELF      -0.508900
     11 O3         -21.1170    18.6880     1.9460 o          1 ELF      -0.499100
     12 O4         -18.2180    23.9420     1.8420 o          1 ELF      -0.583000
     13 H1         -21.9860    25.5480     0.7130 hc         1 ELF       0.053700
     14 H2         -22.4370    25.0170    -0.9010 hc         1 ELF       0.053700
     15 H3         -22.0590    20.9770     1.3020 h1         1 ELF       0.083700
     16 H4         -22.5020    23.1050     0.6790 hc         1 ELF       0.051700
     17 H5         -21.2420    22.8480    -0.5150 hc         1 ELF       0.051700
     18 H6         -19.6730    21.4430     0.9490 hc         1 ELF       0.060200
     19 H7         -19.4650    21.8940     2.6320 hc         1 ELF       0.060200
     20 H8         -20.3960    19.6880     3.5400 h4         1 ELF      -0.020800
     21 H9         -20.9500    23.8340     2.3450 hc         1 ELF       0.087700
     22 H10        -20.1620    24.9540    -1.6550 h1         1 ELF       0.039200
     23 H11        -20.3660    26.4890    -0.8260 h1         1 ELF       0.039200
     24 H12        -22.9560    21.1580     3.4950 hn         1 ELF       0.407000
     25 H14        -21.5730    21.7900     4.0800 hn         1 ELF       0.407000
     26 H15        -18.3930    25.5800     0.0810 hn         1 ELF       0.314500
@<TRIPOS>BOND
     1     1     3 1   
     2     1     8 1   
     3     1    13 1   
     4     1    14 1   
     5     2     5 1   
     6     2     6 1   
     7     2     9 1   
     8     2    15 1   
     9     3     7 1   
    10     3    16 1   
    11     3    17 1   
    12     4     7 1   
    13     4    10 1   
    14     4    12 2   
    15     5     7 1   
    16     5    18 1   
    17     5    19 1   
    18     6    11 2   
    19     6    20 1   
    20     7    21 1   
    21     8    10 1   
    22     8    22 1   
    23     8    23 1   
    24     9    24 1   
    25     9    25 1   
    26    10    26 1   
@<TRIPOS>SUBSTRUCTURE
     1 ELF         1 TEMP              0 ****  ****    0 ROOT
