@<TRIPOS>MOLECULE
ELG
  101   102     1     0     0
SMALL
No Charge or Current Charge


@<TRIPOS>ATOM
      1 N           -2.5830     0.3540     1.9890 ns         1 ELG      -0.505900
      2 C           -3.6420    -1.9080     2.1060 c3         1 ELG       0.143600
      3 O            5.5540     0.0350     3.9750 o          1 ELG      -0.577100
      4 C25         -6.6630     6.1870    -4.6270 c3         1 ELG      -0.088100
      5 C24         -6.6490     4.9180    -3.7540 c3         1 ELG      -0.075400
      6 C23         -5.6220     4.9870    -2.6030 c3         1 ELG      -0.075400
      7 C22         -5.6080     3.7140    -1.7290 c3         1 ELG      -0.075400
      8 C21         -4.5800     3.7810    -0.5780 c3         1 ELG      -0.076400
      9 C20         -4.5730     2.5040     0.2880 c3         1 ELG      -0.064400
     10 C19         -3.5340     2.5410     1.4330 c3         1 ELG      -0.149400
     11 C30         -3.5890     1.2500     2.2550 c          1 ELG       0.612100
     12 O2          -4.4500     1.0430     3.0980 o          1 ELG      -0.595100
     13 C1          -2.4640    -0.9980     2.5620 c3         1 ELG       0.088700
     14 OC1         -3.6990    -1.8940     0.6640 os         1 ELG      -0.473000
     15 CG1         -4.7250    -2.6950     0.0430 c6         1 ELG       0.358300
     16 OG          -6.0360    -2.2450     0.4550 os         1 ELG      -0.449000
     17 CG          -6.3670    -0.8870     0.0550 c6         1 ELG       0.174300
     18 CG5         -7.7590    -0.5040     0.6600 c3         1 ELG       0.169600
     19 OG6         -7.8180    -0.6220     2.0970 oh         1 ELG      -0.715000
     20 CG4         -6.3350    -0.7360    -1.5020 c6         1 ELG       0.146300
     21 OG5         -7.3570    -1.5110    -2.1630 oh         1 ELG      -0.714000
     22 CG3         -4.9410    -1.1930    -2.0240 c6         1 ELG       0.140300
     23 OG4         -4.9130    -1.1660    -3.4650 oh         1 ELG      -0.674000
     24 CG2         -4.5820    -2.6250    -1.5140 c6         1 ELG       0.115300
     25 OG3         -3.2450    -2.9750    -1.9460 oh         1 ELG      -0.709000
     26 C2          -1.0720    -1.6640     2.2740 c3         1 ELG       0.130300
     27 O1          -0.9490    -2.8260     3.1220 oh         1 ELG      -0.640000
     28 C3           0.1780    -0.7200     2.4560 c3         1 ELG       0.137300
     29 O32          0.1770     0.3080     1.4490 oh         1 ELG      -0.634000
     30 C4           1.5450    -1.4580     2.3790 c3         1 ELG      -0.111400
     31 C5           2.7750    -0.5490     2.6280 c3         1 ELG      -0.063400
     32 C6           4.1130    -1.3290     2.6040 c3         1 ELG      -0.160400
     33 C7           5.3140    -0.4050     2.8570 c          1 ELG       0.606100
     34 N1           6.0910    -0.1610     1.7320 ns         1 ELG      -0.150000
     35 C18          7.2630     0.6170     1.5260 ca         1 ELG      -0.018000
     36 C13          7.8430     0.5890     0.2440 ca         1 ELG      -0.167000
     37 C17          7.8620     1.4110     2.5290 ca         1 ELG      -0.132000
     38 C16          9.0220     2.1540     2.2470 ca         1 ELG      -0.084000
     39 C15          9.5920     2.1130     0.9640 ca         1 ELG      -0.134000
     40 C14          9.0030     1.3320    -0.0450 ca         1 ELG      -0.049300
     41 C8           9.6200     1.2830    -1.4370 c3         1 ELG      -0.032100
     42 C9          10.6280     0.1230    -1.5840 c3         1 ELG      -0.074400
     43 C10         11.2690     0.0490    -2.9870 c3         1 ELG      -0.076400
     44 C11         12.2770    -1.1120    -3.1310 c3         1 ELG      -0.075400
     45 C12         12.9160    -1.1860    -4.5310 c3         1 ELG      -0.089100
     46 H1          -1.8640     0.6500     1.3370 hn         1 ELG       0.307500
     47 H3          -4.5790    -1.5270     2.5310 h1         1 ELG       0.049700
     48 H4          -5.6810     6.3530    -5.0870 hc         1 ELG       0.031367
     49 H5          -7.4050     6.0920    -5.4280 hc         1 ELG       0.031367
     50 H6          -6.9180     7.0690    -4.0260 hc         1 ELG       0.031367
     51 H7          -7.6520     4.7600    -3.3380 hc         1 ELG       0.037700
     52 H8          -6.4260     4.0510    -4.3890 hc         1 ELG       0.037700
     53 H9          -4.6210     5.1460    -3.0230 hc         1 ELG       0.035200
     54 H10         -5.8470     5.8550    -1.9710 hc         1 ELG       0.035200
     55 H11         -6.6090     3.5540    -1.3090 hc         1 ELG       0.040200
     56 H12         -5.3840     2.8450    -2.3620 hc         1 ELG       0.040200
     57 H13         -3.5780     3.9380    -0.9980 hc         1 ELG       0.032700
     58 H14         -4.8030     4.6470     0.0570 hc         1 ELG       0.032700
     59 H15         -5.5740     2.3520     0.7130 hc         1 ELG       0.057700
     60 H16         -4.3620     1.6410    -0.3540 hc         1 ELG       0.057700
     61 H17         -2.5380     2.6600     0.9870 hc         1 ELG       0.051200
     62 H18         -3.7600     3.3920     2.0860 hc         1 ELG       0.051200
     63 H19         -2.5480    -0.8840     3.6520 h1         1 ELG       0.095700
     64 H20         -4.5960    -3.7420     0.3570 h2         1 ELG       0.069700
     65 H21         -5.6240    -0.2060     0.4910 h1         1 ELG       0.047700
     66 H22         -7.9840     0.5290     0.3600 h1         1 ELG       0.036700
     67 H23         -8.5230    -1.1470     0.2020 h1         1 ELG       0.036700
     68 H24         -8.7490    -0.4410     2.3630 ho         1 ELG       0.506000
     69 H25         -6.4610     0.3300    -1.7470 h1         1 ELG       0.047700
     70 H26         -7.0200    -1.6140    -3.0860 ho         1 ELG       0.522000
     71 H27         -4.1900    -0.4920    -1.6270 h1         1 ELG       0.061700
     72 H28         -4.1210    -1.6960    -3.7160 ho         1 ELG       0.469000
     73 H29         -5.3050    -3.3370    -1.9410 h1         1 ELG       0.063700
     74 H30         -2.6380    -2.6270    -1.2490 ho         1 ELG       0.512000
     75 H31         -1.0740    -1.9860     1.2240 h1         1 ELG       0.076700
     76 H32         -0.7610    -2.5160     4.0350 ho         1 ELG       0.439000
     77 H33          0.0990    -0.2560     3.4490 h1         1 ELG       0.071700
     78 H34          0.6820    -0.0380     0.6810 ho         1 ELG       0.436000
     79 H35          1.5670    -2.2590     3.1280 hc         1 ELG       0.047700
     80 H36          1.6420    -1.9460     1.4000 hc         1 ELG       0.047700
     81 H37          2.8130     0.2440     1.8700 hc         1 ELG       0.063700
     82 H38          2.6630    -0.0520     3.6000 hc         1 ELG       0.063700
     83 H39          4.0850    -2.0890     3.3930 hc         1 ELG       0.056700
     84 H40          4.2130    -1.8150     1.6260 hc         1 ELG       0.056700
     85 H41          5.7580    -0.6220     0.8950 hn         1 ELG       0.146000
     86 H42          7.3910    -0.0190    -0.5370 ha         1 ELG       0.105000
     87 H43          7.4470     1.4700     3.5300 ha         1 ELG       0.148000
     88 H44          9.4790     2.7620     3.0240 ha         1 ELG       0.114000
     89 H45         10.4900     2.6900     0.7570 ha         1 ELG       0.114000
     90 H46          8.8330     1.1730    -2.1930 hc         1 ELG       0.046200
     91 H47         10.1260     2.2300    -1.6580 hc         1 ELG       0.046200
     92 H48         11.4180     0.2380    -0.8310 hc         1 ELG       0.042200
     93 H49         10.1180    -0.8240    -1.3690 hc         1 ELG       0.042200
     94 H50         10.4780    -0.0650    -3.7390 hc         1 ELG       0.036700
     95 H51         11.7790     0.9970    -3.2010 hc         1 ELG       0.036700
     96 H52         13.0710    -0.9990    -2.3830 hc         1 ELG       0.037700
     97 H53         11.7700    -2.0620    -2.9200 hc         1 ELG       0.037700
     98 H54         12.1490    -1.3340    -5.3010 hc         1 ELG       0.031367
     99 H55         13.4620    -0.2620    -4.7580 hc         1 ELG       0.031367
    100 H56         13.6230    -2.0230    -4.5850 hc         1 ELG       0.031367
    101 H2          -3.4990    -2.9290     2.4830 h1         1 ELG       0.049700
@<TRIPOS>BOND
     1     1    11 1   
     2     1    13 1   
     3     1    46 1   
     4     2    13 1   
     5     2    14 1   
     6     2    47 1   
     7     2   101 1   
     8     3    33 2   
     9     4     5 1   
    10     4    48 1   
    11     4    49 1   
    12     4    50 1   
    13     5     6 1   
    14     5    51 1   
    15     5    52 1   
    16     6     7 1   
    17     6    53 1   
    18     6    54 1   
    19     7     8 1   
    20     7    55 1   
    21     7    56 1   
    22     8     9 1   
    23     8    57 1   
    24     8    58 1   
    25     9    10 1   
    26     9    59 1   
    27     9    60 1   
    28    10    11 1   
    29    10    61 1   
    30    10    62 1   
    31    11    12 2   
    32    13    26 1   
    33    13    63 1   
    34    14    15 1   
    35    15    16 1   
    36    15    24 1   
    37    15    64 1   
    38    16    17 1   
    39    17    18 1   
    40    17    20 1   
    41    17    65 1   
    42    18    19 1   
    43    18    66 1   
    44    18    67 1   
    45    19    68 1   
    46    20    21 1   
    47    20    22 1   
    48    20    69 1   
    49    21    70 1   
    50    22    23 1   
    51    22    24 1   
    52    22    71 1   
    53    23    72 1   
    54    24    25 1   
    55    24    73 1   
    56    25    74 1   
    57    26    27 1   
    58    26    28 1   
    59    26    75 1   
    60    27    76 1   
    61    28    29 1   
    62    28    30 1   
    63    28    77 1   
    64    29    78 1   
    65    30    31 1   
    66    30    79 1   
    67    30    80 1   
    68    31    32 1   
    69    31    81 1   
    70    31    82 1   
    71    32    33 1   
    72    32    83 1   
    73    32    84 1   
    74    33    34 1   
    75    34    35 1   
    76    34    85 1   
    77    35    36 ar  
    78    35    37 ar  
    79    36    40 ar  
    80    36    86 1   
    81    37    38 ar  
    82    37    87 1   
    83    38    39 ar  
    84    38    88 1   
    85    39    40 ar  
    86    39    89 1   
    87    40    41 1   
    88    41    42 1   
    89    41    90 1   
    90    41    91 1   
    91    42    43 1   
    92    42    92 1   
    93    42    93 1   
    94    43    44 1   
    95    43    94 1   
    96    43    95 1   
    97    44    45 1   
    98    44    96 1   
    99    44    97 1   
   100    45    98 1   
   101    45    99 1   
   102    45   100 1   
@<TRIPOS>SUBSTRUCTURE
     1 ELG         1 TEMP              0 ****  ****    0 ROOT
