@<TRIPOS>MOLECULE
ELG
  101   102     1     0     0
SMALL
abcg2


@<TRIPOS>ATOM
      1 N           -2.8590     0.3100     0.8380 ns         1 ELG      -0.505900
      2 C           -3.3450    -1.8340     1.8530 c3         1 ELG       0.143600
      3 O            5.1950     1.0880     2.6010 o          1 ELG      -0.577100
      4 C25         -9.2130     7.3880    -2.1450 c3         1 ELG      -0.088100
      5 C24         -8.5160     6.7100    -0.9750 c3         1 ELG      -0.075400
      6 C23         -7.4710     5.6910    -1.4140 c3         1 ELG      -0.075400
      7 C22         -6.7730     5.0080    -0.2450 c3         1 ELG      -0.075400
      8 C21         -5.7290     3.9840    -0.6740 c3         1 ELG      -0.076400
      9 C20         -5.0690     3.2920     0.5110 c3         1 ELG      -0.064400
     10 C19         -4.0250     2.2760     0.0780 c3         1 ELG      -0.149400
     11 C30         -3.4950     1.4330     1.2200 c          1 ELG       0.612100
     12 O2          -3.6290     1.7550     2.3920 o          1 ELG      -0.595100
     13 C1          -2.3480    -0.6890     1.7480 c3         1 ELG       0.088700
     14 OC1         -3.4710    -2.4460     0.5850 os         1 ELG      -0.473000
     15 CG1         -4.6450    -3.1620     0.3950 c6         1 ELG       0.358300
     16 OG          -5.7640    -2.3300     0.2520 os         1 ELG      -0.449000
     17 CG          -5.7250    -1.4730    -0.8770 c6         1 ELG       0.174300
     18 CG5         -6.9410    -0.5740    -0.8310 c3         1 ELG       0.169600
     19 OG6         -6.8340     0.2610     0.2980 oh         1 ELG      -0.715000
     20 CG4         -5.6270    -2.2640    -2.1730 c6         1 ELG       0.146300
     21 OG5         -6.8160    -2.9920    -2.3630 oh         1 ELG      -0.714000
     22 CG3         -4.4080    -3.1810    -2.0990 c6         1 ELG       0.140300
     23 OG4         -4.3850    -3.9600    -3.2720 oh         1 ELG      -0.674000
     24 CG2         -4.4880    -4.0450    -0.8470 c6         1 ELG       0.115300
     25 OG3         -3.3360    -4.8500    -0.7950 oh         1 ELG      -0.709000
     26 C2          -0.9420    -1.1390     1.2990 c3         1 ELG       0.130300
     27 O1          -0.6120    -2.4100     1.8100 oh         1 ELG      -0.640000
     28 C3           0.1620    -0.1340     1.6900 c3         1 ELG       0.137300
     29 O32         -0.1980     1.2100     1.4750 oh         1 ELG      -0.634000
     30 C4           1.4860    -0.4770     1.0130 c3         1 ELG      -0.111400
     31 C5           2.6600     0.3270     1.5570 c3         1 ELG      -0.063400
     32 C6           3.9690    -0.0760     0.8950 c3         1 ELG      -0.160400
     33 C7           5.1790     0.6270     1.4730 c          1 ELG       0.606100
     34 N1           6.2420     0.6640     0.6270 ns         1 ELG      -0.150000
     35 C18          7.5440     1.1230     0.8510 ca         1 ELG      -0.018000
     36 C13          8.4820     0.8490    -0.1480 ca         1 ELG      -0.167000
     37 C17          7.9460     1.8320     1.9840 ca         1 ELG      -0.132000
     38 C16          9.2690     2.2400     2.0900 ca         1 ELG      -0.084000
     39 C15         10.1950     1.9610     1.0980 ca         1 ELG      -0.134000
     40 C14          9.8040     1.2580    -0.0400 ca         1 ELG      -0.049300
     41 C8          10.8030     0.8920    -1.1010 c3         1 ELG      -0.032100
     42 C9          11.4660    -0.4580    -0.8210 c3         1 ELG      -0.074400
     43 C10         12.4910    -0.8430    -1.8790 c3         1 ELG      -0.076400
     44 C11         13.1480    -2.1910    -1.6110 c3         1 ELG      -0.075400
     45 C12         14.1740    -2.5680    -2.6710 c3         1 ELG      -0.089100
     46 H1          -2.8520     0.0790    -0.1430 hn         1 ELG       0.307500
     47 H3          -4.2990    -1.4120     2.1860 h1         1 ELG       0.049700
     48 H4          -9.7280     6.6600    -2.7740 hc         1 ELG       0.031367
     49 H5          -9.9540     8.1130    -1.8050 hc         1 ELG       0.031367
     50 H6          -8.4980     7.9190    -2.7770 hc         1 ELG       0.031367
     51 H7          -8.0390     7.4650    -0.3430 hc         1 ELG       0.037700
     52 H8          -9.2590     6.2130    -0.3430 hc         1 ELG       0.037700
     53 H9          -7.9480     4.9340    -2.0460 hc         1 ELG       0.035200
     54 H10         -6.7250     6.1870    -2.0460 hc         1 ELG       0.035200
     55 H11         -6.2980     5.7650     0.3870 hc         1 ELG       0.040200
     56 H12         -7.5220     4.5150     0.3850 hc         1 ELG       0.040200
     57 H13         -6.2020     3.2300    -1.3130 hc         1 ELG       0.032700
     58 H14         -4.9690     4.4750    -1.2920 hc         1 ELG       0.032700
     59 H15         -4.6140     4.0400     1.1650 hc         1 ELG       0.057700
     60 H16         -5.8390     2.7910     1.1020 hc         1 ELG       0.057700
     61 H17         -4.4490     1.6190    -0.6850 hc         1 ELG       0.051200
     62 H18         -3.1790     2.7840    -0.3990 hc         1 ELG       0.051200
     63 H19         -2.2820    -0.2340     2.7400 h1         1 ELG       0.095700
     64 H20         -4.8650    -3.7880     1.2720 h2         1 ELG       0.069700
     65 H21         -4.8400    -0.8270    -0.8380 h1         1 ELG       0.047700
     66 H22         -6.9620     0.0050    -1.7640 h1         1 ELG       0.036700
     67 H23         -7.8570    -1.1770    -0.8040 h1         1 ELG       0.036700
     68 H24         -7.5950     0.8480     0.3060 ho         1 ELG       0.506000
     69 H25         -5.4710    -1.5440    -2.9910 h1         1 ELG       0.047700
     70 H26         -6.6820    -3.5890    -3.1070 ho         1 ELG       0.522000
     71 H27         -3.5120    -2.5460    -2.0380 h1         1 ELG       0.061700
     72 H28         -3.7340    -4.6610    -3.1570 ho         1 ELG       0.469000
     73 H29         -5.3930    -4.6630    -0.9140 h1         1 ELG       0.063700
     74 H30         -3.5180    -5.6170    -0.2440 ho         1 ELG       0.512000
     75 H31         -0.9500    -1.2590     0.2090 h1         1 ELG       0.076700
     76 H32         -0.4820    -2.3370     2.7620 ho         1 ELG       0.439000
     77 H33          0.2930    -0.2180     2.7780 h1         1 ELG       0.071700
     78 H34         -0.3110     1.3510     0.5290 ho         1 ELG       0.436000
     79 H35          1.6870    -1.5440     1.1440 hc         1 ELG       0.047700
     80 H36          1.3850    -0.3170    -0.0670 hc         1 ELG       0.047700
     81 H37          2.4870     1.3950     1.4070 hc         1 ELG       0.063700
     82 H38          2.7320     0.1710     2.6360 hc         1 ELG       0.063700
     83 H39          4.1290    -1.1540     1.0180 hc         1 ELG       0.056700
     84 H40          3.9170     0.0940    -0.1840 hc         1 ELG       0.056700
     85 H41          6.0950     0.2420    -0.2770 hn         1 ELG       0.146000
     86 H42          8.1690     0.3010    -1.0320 ha         1 ELG       0.105000
     87 H43          7.2470     2.0700     2.7690 ha         1 ELG       0.148000
     88 H44          9.5750     2.7920     2.9700 ha         1 ELG       0.114000
     89 H45         11.2220     2.2900     1.2030 ha         1 ELG       0.114000
     90 H46         10.3150     0.8570    -2.0790 hc         1 ELG       0.046200
     91 H47         11.5730     1.6660    -1.1630 hc         1 ELG       0.046200
     92 H48         11.9480    -0.4260     0.1620 hc         1 ELG       0.042200
     93 H49         10.6930    -1.2300    -0.7580 hc         1 ELG       0.042200
     94 H50         12.0100    -0.8620    -2.8630 hc         1 ELG       0.036700
     95 H51         13.2640    -0.0680    -1.9350 hc         1 ELG       0.036700
     96 H52         13.6260    -2.1710    -0.6270 hc         1 ELG       0.037700
     97 H53         12.3760    -2.9650    -1.5580 hc         1 ELG       0.037700
     98 H54         13.7140    -2.6260    -3.6590 hc         1 ELG       0.031367
     99 H55         14.9760    -1.8300    -2.7250 hc         1 ELG       0.031367
    100 H56         14.6300    -3.5370    -2.4620 hc         1 ELG       0.031367
    101 H2          -3.0320    -2.5690     2.6030 h1         1 ELG       0.049700
@<TRIPOS>BOND
     1     1    11 1   
     2     1    13 1   
     3     1    46 1   
     4     2    13 1   
     5     2    14 1   
     6     2    47 1   
     7     2   101 1   
     8     3    33 2   
     9     4     5 1   
    10     4    48 1   
    11     4    49 1   
    12     4    50 1   
    13     5     6 1   
    14     5    51 1   
    15     5    52 1   
    16     6     7 1   
    17     6    53 1   
    18     6    54 1   
    19     7     8 1   
    20     7    55 1   
    21     7    56 1   
    22     8     9 1   
    23     8    57 1   
    24     8    58 1   
    25     9    10 1   
    26     9    59 1   
    27     9    60 1   
    28    10    11 1   
    29    10    61 1   
    30    10    62 1   
    31    11    12 2   
    32    13    26 1   
    33    13    63 1   
    34    14    15 1   
    35    15    16 1   
    36    15    24 1   
    37    15    64 1   
    38    16    17 1   
    39    17    18 1   
    40    17    20 1   
    41    17    65 1   
    42    18    19 1   
    43    18    66 1   
    44    18    67 1   
    45    19    68 1   
    46    20    21 1   
    47    20    22 1   
    48    20    69 1   
    49    21    70 1   
    50    22    23 1   
    51    22    24 1   
    52    22    71 1   
    53    23    72 1   
    54    24    25 1   
    55    24    73 1   
    56    25    74 1   
    57    26    27 1   
    58    26    28 1   
    59    26    75 1   
    60    27    76 1   
    61    28    29 1   
    62    28    30 1   
    63    28    77 1   
    64    29    78 1   
    65    30    31 1   
    66    30    79 1   
    67    30    80 1   
    68    31    32 1   
    69    31    81 1   
    70    31    82 1   
    71    32    33 1   
    72    32    83 1   
    73    32    84 1   
    74    33    34 1   
    75    34    35 1   
    76    34    85 1   
    77    35    36 ar  
    78    35    37 ar  
    79    36    40 ar  
    80    36    86 1   
    81    37    38 ar  
    82    37    87 1   
    83    38    39 ar  
    84    38    88 1   
    85    39    40 ar  
    86    39    89 1   
    87    40    41 1   
    88    41    42 1   
    89    41    90 1   
    90    41    91 1   
    91    42    43 1   
    92    42    92 1   
    93    42    93 1   
    94    43    44 1   
    95    43    94 1   
    96    43    95 1   
    97    44    45 1   
    98    44    96 1   
    99    44    97 1   
   100    45    98 1   
   101    45    99 1   
   102    45   100 1   
@<TRIPOS>SUBSTRUCTURE
     1 ELG         1 TEMP              0 ****  ****    0 ROOT
