@<TRIPOS>MOLECULE
ELH
   26    28     1     0     0
SMALL
No Charge or Current Charge


@<TRIPOS>ATOM
      1 CAC          3.5880     2.4330    -0.5960 ca         1 ELH      -0.106000
      2 CAD          2.2240     2.5850    -0.8790 ca         1 ELH      -0.130000
      3 CAE          2.8160    -2.1370     0.8940 ca         1 ELH      -0.107000
      4 CAF          1.4430    -2.0040     0.6430 ca         1 ELH      -0.121000
      5 CAG          4.0620     1.2180    -0.0820 ca         1 ELH      -0.123000
      6 CAH          3.6790    -1.0610     0.6570 ca         1 ELH      -0.116000
      7 CAI          1.3280     1.5280    -0.6390 ca         1 ELH      -0.057000
      8 CAJ         -2.8720    -1.1140    -0.5850 cc         1 ELH      -0.224000
      9 CAN         -2.6600     0.0280     0.1680 cd         1 ELH       0.240500
     10 CAO         -0.5490    -0.7170    -0.0400 cc         1 ELH       0.445900
     11 CAP          0.9070    -0.7950     0.1470 ca         1 ELH      -0.067500
     12 CAQ          3.1730     0.1520     0.1590 ca         1 ELH      -0.038000
     13 CAR          1.7860     0.2990    -0.1040 ca         1 ELH      -0.013000
     14 NAK         -1.3080     0.2380     0.4800 nd         1 ELH      -0.586000
     15 OAA         -3.6270     1.9180     1.2420 o          1 ELH      -0.699500
     16 OAB         -4.9720     0.5970     0.2260 o          1 ELH      -0.699500
     17 SAL         -1.3930    -1.9630    -0.9230 ss         1 ELH      -0.180400
     18 H1           4.2790     3.2530    -0.7830 ha         1 ELH       0.099000
     19 H2           1.8560     3.5240    -1.2880 ha         1 ELH       0.111000
     20 H3           3.2100    -3.0750     1.2800 ha         1 ELH       0.102000
     21 H4           0.7860    -2.8460     0.8510 ha         1 ELH       0.118000
     22 H5           5.1230     1.1030     0.1250 ha         1 ELH       0.098000
     23 H6           4.7420    -1.1720     0.8570 ha         1 ELH       0.100000
     24 H7           0.2830     1.6810    -0.8890 ha         1 ELH       0.159000
     25 H8          -3.8120    -1.5040    -0.9550 h4         1 ELH       0.165000
     26 CAM         -3.8380     0.9100     0.5740 c          1 ELH       0.629500
@<TRIPOS>BOND
     1     1     2 ar  
     2     1     5 ar  
     3     1    18 1   
     4     2     7 ar  
     5     2    19 1   
     6     3     4 ar  
     7     3     6 ar  
     8     3    20 1   
     9     4    11 ar  
    10     4    21 1   
    11     5    12 ar  
    12     5    22 1   
    13     6    12 ar  
    14     6    23 1   
    15     7    13 ar  
    16     7    24 1   
    17     8     9 2   
    18     8    17 1   
    19     8    25 1   
    20     9    14 1   
    21     9    26 1   
    22    10    11 1   
    23    10    14 2   
    24    10    17 1   
    25    11    13 ar  
    26    12    13 ar  
    27    15    26 1   
    28    16    26 1   
@<TRIPOS>SUBSTRUCTURE
     1 ELH         1 TEMP              0 ****  ****    0 ROOT
