@<TRIPOS>MOLECULE
ELH
   26    28     1     0     0
SMALL
bcc


@<TRIPOS>ATOM
      1 CAC          3.5350     2.4330    -0.5600 ca         1 ELH      -0.124000
      2 CAD          2.1510     2.5880    -0.7700 ca         1 ELH      -0.148000
      3 CAE          2.8340    -2.1440     0.8240 ca         1 ELH      -0.125000
      4 CAF          1.4500    -2.0000     0.6320 ca         1 ELH      -0.139000
      5 CAG          4.0220     1.2370    -0.1120 ca         1 ELH      -0.141000
      6 CAH          3.6690    -1.0890     0.5910 ca         1 ELH      -0.134000
      7 CAI          1.2840     1.5580    -0.5200 ca         1 ELH      -0.075000
      8 CAJ         -2.8730    -1.2110    -0.4910 cc         1 ELH      -0.162400
      9 CAN         -2.6350     0.0030     0.0830 cd         1 ELH       0.305800
     10 CAO         -0.5540    -0.7370     0.0240 cc         1 ELH       0.445900
     11 CAP          0.9010    -0.8110     0.2080 ca         1 ELH      -0.067500
     12 CAQ          3.1540     0.1510     0.1490 ca         1 ELH      -0.038000
     13 CAR          1.7540     0.3080    -0.0490 ca         1 ELH      -0.013000
     14 NAK         -1.3200     0.2490     0.3620 nd         1 ELH      -0.586000
     15 OAA         -3.3460     2.0780     0.9240 o          1 ELH      -0.804800
     16 OAB         -4.8770     0.6720     0.1020 o          1 ELH      -0.804800
     17 SAL         -1.4110    -2.0660    -0.6970 ss         1 ELH      -0.325300
     18 H1           4.2070     3.2560    -0.7600 ha         1 ELH       0.117000
     19 H2           1.7680     3.5330    -1.1340 ha         1 ELH       0.129000
     20 H3           3.2270    -3.0910     1.1670 ha         1 ELH       0.120000
     21 H4           0.8060    -2.8440     0.8490 ha         1 ELH       0.136000
     22 H5           5.0850     1.1010     0.0460 ha         1 ELH       0.116000
     23 H6           4.7370    -1.1900     0.7400 ha         1 ELH       0.118000
     24 H7           0.2260     1.7080    -0.6760 ha         1 ELH       0.177000
     25 H8          -3.8190    -1.6280    -0.7950 h4         1 ELH       0.183000
     26 CAM         -3.7180     1.0150     0.4010 c          1 ELH       0.840100
@<TRIPOS>BOND
     1     1     2 ar  
     2     1     5 ar  
     3     1    18 1   
     4     2     7 ar  
     5     2    19 1   
     6     3     4 ar  
     7     3     6 ar  
     8     3    20 1   
     9     4    11 ar  
    10     4    21 1   
    11     5    12 ar  
    12     5    22 1   
    13     6    12 ar  
    14     6    23 1   
    15     7    13 ar  
    16     7    24 1   
    17     8     9 2   
    18     8    17 1   
    19     8    25 1   
    20     9    14 1   
    21     9    26 1   
    22    10    11 1   
    23    10    14 2   
    24    10    17 1   
    25    11    13 ar  
    26    12    13 ar  
    27    15    26 1   
    28    16    26 1   
@<TRIPOS>SUBSTRUCTURE
     1 ELH         1 TEMP              0 ****  ****    0 ROOT
