@<TRIPOS>MOLECULE
ELI
   38    39     1     0     0
SMALL
No Charge or Current Charge


@<TRIPOS>ATOM
      1 C1          81.0880    13.3840    56.3510 ca         1 ELI      -0.103000
      2 C2          81.4450    14.4650    55.5300 ca         1 ELI      -0.068000
      3 C3          82.4810    15.3500    55.9100 ca         1 ELI      -0.128600
      4 C4          83.1620    15.1390    57.1320 ca         1 ELI      -0.132600
      5 C5          82.7920    14.0440    57.9490 ca         1 ELI      -0.069000
      6 C6          81.7630    13.1730    57.5600 ca         1 ELI      -0.106000
      7 C10         82.8510    16.5010    55.0110 c          1 ELI       0.567900
      8 C11         84.2740    16.0610    57.5770 c          1 ELI       0.573900
      9 C14         84.6000    17.2190    56.6860 cc         1 ELI      -0.146400
     10 C15         83.9480    17.4140    55.4680 cd         1 ELI      -0.116400
     11 O16         84.8690    15.8470    58.6280 o          1 ELI      -0.519100
     12 C17         85.7030    18.1290    57.2100 c3         1 ELI      -0.052900
     13 C18         84.2870    18.5510    54.5120 c3         1 ELI      -0.047200
     14 C19         83.4150    19.8030    54.7520 c3         1 ELI      -0.069400
     15 C20         83.7700    20.9780    53.8140 c3         1 ELI      -0.079400
     16 C23         82.8970    22.2300    54.0560 c3         1 ELI      -0.054400
     17 C26         83.2500    23.4100    53.1170 c3         1 ELI      -0.204400
     18 C43         82.3430    24.6170    53.4160 c          1 ELI       0.717000
     19 O44         81.2770    24.6990    52.8240 o          1 ELI      -0.743000
     20 O45         82.7070    25.4160    54.2660 o          1 ELI      -0.743000
     21 H1          80.2900    12.7100    56.0480 ha         1 ELI       0.115000
     22 H2          80.9090    14.6100    54.5930 ha         1 ELI       0.138000
     23 H5          83.3030    13.8630    58.8930 ha         1 ELI       0.134000
     24 H6          81.4890    12.3360    58.1980 ha         1 ELI       0.114000
     25 H171        86.6870    17.7730    56.8830 hc         1 ELI       0.054700
     26 H172        85.7130    18.1860    58.3050 hc         1 ELI       0.054700
     27 H173        85.5860    19.1600    56.8600 hc         1 ELI       0.054700
     28 H181        84.1740    18.2330    53.4680 hc         1 ELI       0.056200
     29 H182        85.3450    18.8270    54.5990 hc         1 ELI       0.056200
     30 H191        83.5280    20.1270    55.7940 hc         1 ELI       0.041200
     31 H192        82.3590    19.5380    54.6140 hc         1 ELI       0.041200
     32 H201        83.6540    20.6540    52.7720 hc         1 ELI       0.026200
     33 H202        84.8250    21.2430    53.9530 hc         1 ELI       0.026200
     34 H231        83.0110    22.5520    55.0980 hc         1 ELI       0.039700
     35 H232        81.8410    21.9640    53.9180 hc         1 ELI       0.039700
     36 H261        83.0790    23.0440    52.0970 hc         1 ELI       0.014700
     37 H262        84.2990    23.6560    53.3270 hc         1 ELI       0.014700
     38 O7          82.2590    16.6680    53.9490 o          1 ELI      -0.496100
@<TRIPOS>BOND
     1     1     2 ar  
     2     1     6 ar  
     3     1    21 1   
     4     2     3 ar  
     5     2    22 1   
     6     3     4 ar  
     7     3     7 1   
     8     4     5 ar  
     9     4     8 1   
    10     5     6 ar  
    11     5    23 1   
    12     6    24 1   
    13     7    10 1   
    14     7    38 2   
    15     8     9 1   
    16     8    11 2   
    17     9    10 2   
    18     9    12 1   
    19    10    13 1   
    20    12    25 1   
    21    12    26 1   
    22    12    27 1   
    23    13    14 1   
    24    13    28 1   
    25    13    29 1   
    26    14    15 1   
    27    14    30 1   
    28    14    31 1   
    29    15    16 1   
    30    15    32 1   
    31    15    33 1   
    32    16    17 1   
    33    16    34 1   
    34    16    35 1   
    35    17    18 1   
    36    17    36 1   
    37    17    37 1   
    38    18    19 1   
    39    18    20 1   
@<TRIPOS>SUBSTRUCTURE
     1 ELI         1 TEMP              0 ****  ****    0 ROOT
