@<TRIPOS>MOLECULE
ELI
   38    39     1     0     0
SMALL
bcc


@<TRIPOS>ATOM
      1 C1          81.2180    13.3370    56.2130 ca         1 ELI      -0.121000
      2 C2          81.5480    14.4280    55.4250 ca         1 ELI      -0.086000
      3 C3          82.5040    15.3370    55.8660 ca         1 ELI      -0.128600
      4 C4          83.1270    15.1490    57.0980 ca         1 ELI      -0.132600
      5 C5          82.7880    14.0560    57.8880 ca         1 ELI      -0.087000
      6 C6          81.8360    13.1520    57.4440 ca         1 ELI      -0.124000
      7 C10         82.8610    16.5030    55.0240 c          1 ELI       0.567900
      8 C11         84.1470    16.1140    57.5650 c          1 ELI       0.573900
      9 C14         84.5090    17.2610    56.6920 cc         1 ELI      -0.146400
     10 C15         83.9290    17.4290    55.4860 cd         1 ELI      -0.116400
     11 O16         84.6920    15.9730    58.6410 o          1 ELI      -0.519100
     12 C17         85.5500    18.1730    57.2570 c3         1 ELI      -0.052900
     13 C18         84.2590    18.5620    54.5620 c3         1 ELI      -0.047200
     14 C19         83.4210    19.8130    54.8460 c3         1 ELI      -0.069400
     15 C20         83.7210    20.9380    53.8650 c3         1 ELI      -0.079400
     16 C23         82.9360    22.2110    54.1560 c3         1 ELI      -0.054400
     17 C26         83.2230    23.3220    53.1580 c3         1 ELI      -0.204400
     18 C43         82.4710    24.6450    53.3870 c          1 ELI       0.927600
     19 O44         81.5750    24.6640    54.2550 o          1 ELI      -0.848300
     20 O45         82.8160    25.6030    52.6630 o          1 ELI      -0.848300
     21 H1          80.4770    12.6290    55.8670 ha         1 ELI       0.133000
     22 H2          81.0670    14.5710    54.4680 ha         1 ELI       0.156000
     23 H5          83.2660    13.9100    58.8470 ha         1 ELI       0.152000
     24 H6          81.5730    12.3010    58.0590 ha         1 ELI       0.132000
     25 H171        86.4860    17.6380    57.4210 hc         1 ELI       0.054700
     26 H172        85.2350    18.5640    58.2250 hc         1 ELI       0.054700
     27 H173        85.7560    19.0200    56.6100 hc         1 ELI       0.054700
     28 H181        84.0930    18.2500    53.5300 hc         1 ELI       0.056200
     29 H182        85.3180    18.8110    54.6370 hc         1 ELI       0.056200
     30 H191        83.6120    20.1550    55.8690 hc         1 ELI       0.041200
     31 H192        82.3580    19.5600    54.8010 hc         1 ELI       0.041200
     32 H201        83.5000    20.5950    52.8480 hc         1 ELI       0.026200
     33 H202        84.7940    21.1570    53.8840 hc         1 ELI       0.026200
     34 H231        83.1710    22.5550    55.1680 hc         1 ELI       0.039700
     35 H232        81.8660    21.9860    54.1570 hc         1 ELI       0.039700
     36 H261        82.9840    22.9720    52.1450 hc         1 ELI       0.014700
     37 H262        84.2980    23.5320    53.1370 hc         1 ELI       0.014700
     38 O7          82.2870    16.7010    53.9720 o          1 ELI      -0.496100
@<TRIPOS>BOND
     1     1     2 ar  
     2     1     6 ar  
     3     1    21 1   
     4     2     3 ar  
     5     2    22 1   
     6     3     4 ar  
     7     3     7 1   
     8     4     5 ar  
     9     4     8 1   
    10     5     6 ar  
    11     5    23 1   
    12     6    24 1   
    13     7    10 1   
    14     7    38 2   
    15     8     9 1   
    16     8    11 2   
    17     9    10 2   
    18     9    12 1   
    19    10    13 1   
    20    12    25 1   
    21    12    26 1   
    22    12    27 1   
    23    13    14 1   
    24    13    28 1   
    25    13    29 1   
    26    14    15 1   
    27    14    30 1   
    28    14    31 1   
    29    15    16 1   
    30    15    32 1   
    31    15    33 1   
    32    16    17 1   
    33    16    34 1   
    34    16    35 1   
    35    17    18 1   
    36    17    36 1   
    37    17    37 1   
    38    18    19 1   
    39    18    20 1   
@<TRIPOS>SUBSTRUCTURE
     1 ELI         1 TEMP              0 ****  ****    0 ROOT
