@<TRIPOS>MOLECULE
ELM
  116   117     1     0     0
SMALL
bcc


@<TRIPOS>ATOM
      1 C1           4.0520    -0.8240     0.6530 c3         1 ELM      -0.151400
      2 O1          -4.9500    -1.2400     1.2180 o          1 ELM      -0.603100
      3 O2           0.0720     0.1300     1.6480 oh         1 ELM      -0.572800
      4 C2           5.0740    -1.7490     1.2900 c3         1 ELM      -0.063400
      5 C3           5.8190    -2.5680     0.2440 c3         1 ELM      -0.077400
      6 O3           0.1900     3.7720     1.4020 oh         1 ELM      -0.577800
      7 C4           6.8190    -3.5470     0.8440 c3         1 ELM      -0.074400
      8 C5           7.5870    -4.3350    -0.2090 c3         1 ELM      -0.074400
      9 C6           8.5810    -5.3270     0.3800 c3         1 ELM      -0.074400
     10 C7           9.3530    -6.1050    -0.6790 c3         1 ELM      -0.074400
     11 C8         -15.8420    -0.6480     0.2740 ca         1 ELM      -0.125500
     12 C9         -16.9860    -1.3940     0.5280 ca         1 ELM      -0.127000
     13 C10        -17.3090    -2.4730    -0.2850 ca         1 ELM      -0.130000
     14 C11        -16.4810    -2.7970    -1.3520 ca         1 ELM      -0.127000
     15 C12        -15.3390    -2.0480    -1.6010 ca         1 ELM      -0.125500
     16 C13        -15.0030    -0.9630    -0.7920 ca         1 ELM      -0.078300
     17 C14        -13.7410    -0.1850    -1.0400 c3         1 ELM      -0.030100
     18 C15        -12.5340    -0.8010    -0.3310 c3         1 ELM      -0.074400
     19 C16        -11.2480    -0.0250    -0.5780 c3         1 ELM      -0.075400
     20 C17        -10.0400    -0.6350     0.1220 c3         1 ELM      -0.072400
     21 C18         -8.7530     0.1360    -0.1390 c3         1 ELM      -0.094400
     22 C21         -5.1260    -0.1900     0.6130 c          1 ELM       0.663100
     23 N1          -6.3480     0.2470     0.2770 ns         1 ELM      -0.578900
     24 C19         -7.5600    -0.4930     0.5620 c3         1 ELM       0.105000
     25 C22         -3.9750     0.6870     0.1620 c3         1 ELM      -0.156400
     26 C23         -2.8100     0.6900     1.1420 c3         1 ELM      -0.064400
     27 C25         -0.4150     1.4480     1.5410 c3         1 ELM       0.115100
     28 C26          0.6550     2.4760     1.1120 c3         1 ELM       0.106100
     29 C27          2.0380     2.2010     1.7370 c3         1 ELM       0.087700
     30 C28          2.9580     3.4150     1.7380 c3         1 ELM       0.118400
     31 O4           3.1670     3.8260     0.4030 os         1 ELM      -0.427600
     32 C31          4.3030     4.5980     0.1970 c6         1 ELM       0.311900
     33 C32          4.2250     5.2200    -1.2000 c6         1 ELM       0.092100
     34 O5           3.0270     5.9220    -1.4150 oh         1 ELM      -0.586800
     35 C33          4.3330     4.1320    -2.2620 c6         1 ELM       0.116100
     36 O6           4.3860     4.6710    -3.5620 oh         1 ELM      -0.611800
     37 C34          5.6070     3.3190    -2.0440 c6         1 ELM       0.124100
     38 O7           6.7630     4.0890    -2.2690 oh         1 ELM      -0.590800
     39 C30          5.6220     2.8010    -0.6130 c6         1 ELM       0.150100
     40 C29          6.8820     2.0320    -0.2800 c3         1 ELM       0.146400
     41 O8           6.7040     1.4090     0.9710 oh         1 ELM      -0.591800
     42 O9           5.4860     3.8560     0.3240 os         1 ELM      -0.401600
     43 N2           2.6800     1.1140     1.0320 ns         1 ELM      -0.576900
     44 C20          3.3940     0.1350     1.6230 c          1 ELM       0.678100
     45 O            3.4860     0.0210     2.8360 o          1 ELM      -0.591100
     46 C40         10.3450    -7.1010    -0.0930 c3         1 ELM      -0.074400
     47 C41         11.1180    -7.8760    -1.1530 c3         1 ELM      -0.075400
     48 C42         12.1100    -8.8740    -0.5670 c3         1 ELM      -0.075400
     49 C43         12.8780    -9.6430    -1.6320 c3         1 ELM      -0.088100
     50 H1           4.5270    -0.2450    -0.1440 hc         1 ELM       0.050200
     51 H2           3.2670    -1.4100     0.1630 hc         1 ELM       0.050200
     52 H3           0.3820    -0.1580     0.7830 ho         1 ELM       0.399000
     53 H4           5.7930    -1.1610     1.8650 hc         1 ELM       0.058200
     54 H5           4.5810    -2.4190     2.0000 hc         1 ELM       0.058200
     55 H6           5.1000    -3.1190    -0.3730 hc         1 ELM       0.032700
     56 H7           6.3420    -1.8870    -0.4360 hc         1 ELM       0.032700
     57 H8          -0.0110     3.8260     2.3430 ho         1 ELM       0.399000
     58 H9           7.5280    -3.0030     1.4780 hc         1 ELM       0.040700
     59 H10          6.2930    -4.2430     1.5070 hc         1 ELM       0.040700
     60 H11          6.8770    -4.8700    -0.8490 hc         1 ELM       0.035200
     61 H12          8.1170    -3.6360    -0.8660 hc         1 ELM       0.035200
     62 H13          9.2890    -4.7940     1.0250 hc         1 ELM       0.038200
     63 H14          8.0500    -6.0300     1.0310 hc         1 ELM       0.038200
     64 H15          8.6450    -6.6350    -1.3250 hc         1 ELM       0.036200
     65 H16          9.8850    -5.4010    -1.3280 hc         1 ELM       0.036200
     66 H18        -17.6280    -1.1290     1.3590 ha         1 ELM       0.129000
     67 H19        -18.2020    -3.0540    -0.0910 ha         1 ELM       0.130000
     68 H20        -16.7270    -3.6340    -1.9940 ha         1 ELM       0.129000
     69 H21        -14.7010    -2.3070    -2.4380 ha         1 ELM       0.128000
     70 H22        -13.5410    -0.1400    -2.1140 hc         1 ELM       0.045700
     71 H23        -13.8700     0.8470    -0.7020 hc         1 ELM       0.045700
     72 H24        -12.7330    -0.8500     0.7450 hc         1 ELM       0.043700
     73 H25        -12.4070    -1.8360    -0.6660 hc         1 ELM       0.043700
     74 H26        -11.0570     0.0240    -1.6560 hc         1 ELM       0.037700
     75 H27        -11.3780     1.0110    -0.2450 hc         1 ELM       0.037700
     76 H28        -10.2270    -0.6760     1.2000 hc         1 ELM       0.043700
     77 H29         -9.9150    -1.6720    -0.2060 hc         1 ELM       0.043700
     78 H30         -8.5610     0.1750    -1.2160 hc         1 ELM       0.041700
     79 H31         -8.8730     1.1710     0.1970 hc         1 ELM       0.041700
     80 H32         -6.4330     1.1310    -0.1990 hn         1 ELM       0.310500
     81 H33         -7.7380    -0.5250     1.6410 h1         1 ELM       0.052200
     82 H34         -7.4410    -1.5280     0.2310 h1         1 ELM       0.052200
     83 H35         -3.6350     0.3010    -0.8060 hc         1 ELM       0.052200
     84 H36         -4.3220     1.7060    -0.0260 hc         1 ELM       0.052200
     85 H37         -3.1390     1.0870     2.1070 hc         1 ELM       0.062200
     86 H38         -2.4840    -0.3350     1.3200 hc         1 ELM       0.062200
     87 H39         -1.3520     1.1800    -0.3720 hc         1 ELM       0.045700
     88 H40         -1.9450     2.5630     0.5230 hc         1 ELM       0.045700
     89 H41         -0.7180     1.7140     2.5620 h1         1 ELM       0.068700
     90 H42          0.7640     2.4460     0.0210 h1         1 ELM       0.077700
     91 H43          1.9110     1.8950     2.7790 h1         1 ELM       0.096700
     92 H44          2.5360     4.2340     2.3320 h1         1 ELM       0.050200
     93 H45          3.8980     3.1150     2.2130 h1         1 ELM       0.050200
     94 H46          4.3800     5.3890     0.9570 h2         1 ELM       0.070700
     95 H47          5.0930     5.8850    -1.2990 h1         1 ELM       0.064700
     96 H48          3.1020     6.7940    -1.0160 ho         1 ELM       0.413000
     97 H49          3.4750     3.4510    -2.1590 h1         1 ELM       0.061700
     98 H50          3.6790     5.3190    -3.6510 ho         1 ELM       0.430000
     99 H51          5.5800     2.4450    -2.7130 h1         1 ELM       0.047700
    100 H52          6.6650     4.5240    -3.1230 ho         1 ELM       0.423000
    101 H53          4.7830     2.1010    -0.5220 h1         1 ELM       0.048700
    102 H54          7.0450     1.2970    -1.0790 h1         1 ELM       0.037200
    103 H55          7.7480     2.7050    -0.2770 h1         1 ELM       0.037200
    104 H56          7.4670     0.8490     1.1350 ho         1 ELM       0.407000
    105 H57          2.7260     1.1880     0.0280 hn         1 ELM       0.306500
    106 H58         11.0520    -6.5710     0.5550 hc         1 ELM       0.037200
    107 H59          9.8120    -7.8060     0.5550 hc         1 ELM       0.037200
    108 H60         10.4120    -8.4060    -1.8020 hc         1 ELM       0.036700
    109 H61         11.6520    -7.1720    -1.8000 hc         1 ELM       0.036700
    110 H62         12.8150    -8.3440     0.0820 hc         1 ELM       0.036700
    111 H63         11.5750    -9.5770     0.0800 hc         1 ELM       0.036700
    112 H64         13.4480    -8.9670    -2.2720 hc         1 ELM       0.031367
    113 H65         13.5800   -10.3510    -1.1890 hc         1 ELM       0.031367
    114 H66         12.2000   -10.2080    -2.2750 hc         1 ELM       0.031367
    115 C24         -1.6390     1.5200     0.6310 c3         1 ELM      -0.109400
    116 H17        -15.6020     0.1960     0.9120 ha         1 ELM       0.128000
@<TRIPOS>BOND
     1     1     4 1   
     2     1    44 1   
     3     1    50 1   
     4     1    51 1   
     5     2    22 2   
     6     3    27 1   
     7     3    52 1   
     8     4     5 1   
     9     4    53 1   
    10     4    54 1   
    11     5     7 1   
    12     5    55 1   
    13     5    56 1   
    14     6    28 1   
    15     6    57 1   
    16     7     8 1   
    17     7    58 1   
    18     7    59 1   
    19     8     9 1   
    20     8    60 1   
    21     8    61 1   
    22     9    10 1   
    23     9    62 1   
    24     9    63 1   
    25    10    46 1   
    26    10    64 1   
    27    10    65 1   
    28    11    12 ar  
    29    11    16 ar  
    30    11   116 1   
    31    12    13 ar  
    32    12    66 1   
    33    13    14 ar  
    34    13    67 1   
    35    14    15 ar  
    36    14    68 1   
    37    15    16 ar  
    38    15    69 1   
    39    16    17 1   
    40    17    18 1   
    41    17    70 1   
    42    17    71 1   
    43    18    19 1   
    44    18    72 1   
    45    18    73 1   
    46    19    20 1   
    47    19    74 1   
    48    19    75 1   
    49    20    21 1   
    50    20    76 1   
    51    20    77 1   
    52    21    24 1   
    53    21    78 1   
    54    21    79 1   
    55    22    23 1   
    56    22    25 1   
    57    23    24 1   
    58    23    80 1   
    59    24    81 1   
    60    24    82 1   
    61    25    26 1   
    62    25    83 1   
    63    25    84 1   
    64    26    85 1   
    65    26    86 1   
    66    26   115 1   
    67    27    28 1   
    68    27    89 1   
    69    27   115 1   
    70    28    29 1   
    71    28    90 1   
    72    29    30 1   
    73    29    43 1   
    74    29    91 1   
    75    30    31 1   
    76    30    92 1   
    77    30    93 1   
    78    31    32 1   
    79    32    33 1   
    80    32    42 1   
    81    32    94 1   
    82    33    34 1   
    83    33    35 1   
    84    33    95 1   
    85    34    96 1   
    86    35    36 1   
    87    35    37 1   
    88    35    97 1   
    89    36    98 1   
    90    37    38 1   
    91    37    39 1   
    92    37    99 1   
    93    38   100 1   
    94    39    40 1   
    95    39    42 1   
    96    39   101 1   
    97    40    41 1   
    98    40   102 1   
    99    40   103 1   
   100    41   104 1   
   101    43    44 1   
   102    43   105 1   
   103    44    45 2   
   104    46    47 1   
   105    46   106 1   
   106    46   107 1   
   107    47    48 1   
   108    47   108 1   
   109    47   109 1   
   110    48    49 1   
   111    48   110 1   
   112    48   111 1   
   113    49   112 1   
   114    49   113 1   
   115    49   114 1   
   116    87   115 1   
   117    88   115 1   
@<TRIPOS>SUBSTRUCTURE
     1 ELM         1 TEMP              0 ****  ****    0 ROOT
