@<TRIPOS>MOLECULE
ELM
  116   117     1     0     0
SMALL
No Charge or Current Charge


@<TRIPOS>ATOM
      1 C1           3.4100    -1.2980     2.1350 c3         1 ELM      -0.151400
      2 O1          -5.6960    -0.3970    -0.7480 o          1 ELM      -0.603100
      3 O2          -0.2490     0.2950     0.3870 oh         1 ELM      -0.635000
      4 C2           4.8110    -1.3550     1.4820 c3         1 ELM      -0.063400
      5 C3           5.2460    -2.7780     1.0760 c3         1 ELM      -0.077400
      6 O3           0.0710     3.8700     1.3870 oh         1 ELM      -0.640000
      7 C4           6.6530    -2.8100     0.4380 c3         1 ELM      -0.074400
      8 C5           7.1100    -4.2320     0.0480 c3         1 ELM      -0.074400
      9 C6           8.5270    -4.2630    -0.5660 c3         1 ELM      -0.074400
     10 C7           8.9990    -5.6880    -0.9270 c3         1 ELM      -0.074400
     11 C8         -15.9910    -0.6250    -0.3300 ca         1 ELM      -0.107500
     12 C9         -17.1780    -1.3250    -0.0510 ca         1 ELM      -0.109000
     13 C10        -17.3810    -2.6070    -0.5890 ca         1 ELM      -0.112000
     14 C11        -16.3970    -3.1900    -1.4050 ca         1 ELM      -0.109000
     15 C12        -15.2100    -2.4890    -1.6840 ca         1 ELM      -0.107500
     16 C13        -15.0010    -1.2030    -1.1500 ca         1 ELM      -0.078300
     17 C14        -13.7140    -0.4450    -1.4500 c3         1 ELM      -0.030100
     18 C15        -12.6140    -0.7320    -0.4060 c3         1 ELM      -0.074400
     19 C16        -11.2990     0.0300    -0.6850 c3         1 ELM      -0.075400
     20 C17        -10.1980    -0.2610     0.3590 c3         1 ELM      -0.072400
     21 C18         -8.8860     0.5050     0.0830 c3         1 ELM      -0.094400
     22 C21         -5.6050     0.6130    -0.0650 c          1 ELM       0.596100
     23 N1          -6.5610     0.9680     0.8620 ns         1 ELM      -0.511900
     24 C19         -7.7890     0.2150     1.1280 c3         1 ELM       0.105000
     25 C22         -4.4370     1.5970    -0.2000 c3         1 ELM      -0.156400
     26 C23         -3.1400     1.0360     0.4310 c3         1 ELM      -0.064400
     27 C25         -0.6440     1.5250     1.0190 c3         1 ELM       0.138300
     28 C26          0.5380     2.5660     0.9770 c3         1 ELM       0.129300
     29 C27          1.7840     2.1990     1.8580 c3         1 ELM       0.087700
     30 C28          2.9890     3.1460     1.5790 c3         1 ELM       0.141600
     31 O4           3.5490     2.8050     0.2930 os         1 ELM      -0.474000
     32 C31          4.6740     3.5880    -0.1570 c6         1 ELM       0.358300
     33 C32          5.1000     3.1270    -1.5910 c6         1 ELM       0.115300
     34 O5           3.9830     3.1480    -2.5140 oh         1 ELM      -0.709000
     35 C33          5.7100     1.6900    -1.5370 c6         1 ELM       0.139300
     36 O6           6.2000     1.3180    -2.8410 oh         1 ELM      -0.674000
     37 C34          6.8530     1.5970    -0.4840 c6         1 ELM       0.147300
     38 O7           7.9910     2.3430    -0.9630 oh         1 ELM      -0.713000
     39 C30          6.3180     2.1170     0.8910 c6         1 ELM       0.173300
     40 C29          7.4220     2.1120     2.0000 c3         1 ELM       0.169600
     41 O8           6.9520     2.5750     3.2840 oh         1 ELM      -0.714000
     42 O9           5.7800     3.4620     0.7670 os         1 ELM      -0.448000
     43 N2           2.1840     0.7870     1.7350 ns         1 ELM      -0.509900
     44 C20          3.0710     0.1350     2.5570 c          1 ELM       0.611100
     45 O            3.5370     0.6520     3.5610 o          1 ELM      -0.591100
     46 C40         10.4220    -5.7190    -1.5290 c3         1 ELM      -0.074400
     47 C41         10.9020    -7.1460    -1.8730 c3         1 ELM      -0.075400
     48 C42         12.3290    -7.1780    -2.4640 c3         1 ELM      -0.075400
     49 C43         12.8080    -8.6020    -2.8080 c3         1 ELM      -0.088100
     50 H1           2.6760    -1.6610     1.4050 hc         1 ELM       0.050200
     51 H2           3.4100    -1.9410     3.0230 hc         1 ELM       0.050200
     52 H3          -0.5270     0.3490    -0.5530 ho         1 ELM       0.438000
     53 H4           4.8150    -0.7150     0.5920 hc         1 ELM       0.058200
     54 H5           5.5500    -0.9400     2.1800 hc         1 ELM       0.058200
     55 H6           5.2370    -3.4260     1.9620 hc         1 ELM       0.032700
     56 H7           4.5180    -3.1910     0.3670 hc         1 ELM       0.032700
     57 H8          -0.4000     3.7670     2.2430 ho         1 ELM       0.438000
     58 H9           6.6600    -2.1710    -0.4540 hc         1 ELM       0.040700
     59 H10          7.3770    -2.3810     1.1440 hc         1 ELM       0.040700
     60 H11          7.0910    -4.8720     0.9390 hc         1 ELM       0.035200
     61 H12          6.3960    -4.6570    -0.6680 hc         1 ELM       0.035200
     62 H13          8.5430    -3.6380    -1.4680 hc         1 ELM       0.038200
     63 H14          9.2360    -3.8190     0.1440 hc         1 ELM       0.038200
     64 H15          8.9760    -6.3140    -0.0260 hc         1 ELM       0.036200
     65 H16          8.2940    -6.1310    -1.6430 hc         1 ELM       0.036200
     66 H18        -17.9390    -0.8740     0.5820 ha         1 ELM       0.111000
     67 H19        -18.3000    -3.1490    -0.3730 ha         1 ELM       0.112000
     68 H20        -16.5520    -4.1830    -1.8200 ha         1 ELM       0.111000
     69 H21        -14.4510    -2.9480    -2.3140 ha         1 ELM       0.110000
     70 H22        -13.3440    -0.7130    -2.4470 hc         1 ELM       0.045700
     71 H23        -13.9120     0.6340    -1.4780 hc         1 ELM       0.045700
     72 H24        -12.9850    -0.4600     0.5900 hc         1 ELM       0.043700
     73 H25        -12.4100    -1.8100    -0.3880 hc         1 ELM       0.043700
     74 H26        -10.9300    -0.2410    -1.6820 hc         1 ELM       0.037700
     75 H27        -11.5040     1.1080    -0.7010 hc         1 ELM       0.037700
     76 H28        -10.5680     0.0070     1.3570 hc         1 ELM       0.043700
     77 H29         -9.9900    -1.3380     0.3720 hc         1 ELM       0.043700
     78 H30         -8.5150     0.2380    -0.9140 hc         1 ELM       0.041700
     79 H31         -9.0920     1.5830     0.0710 hc         1 ELM       0.041700
     80 H32         -6.4000     1.8260     1.3760 hn         1 ELM       0.310500
     81 H33         -8.1550     0.4880     2.1270 h1         1 ELM       0.052200
     82 H34         -7.5590    -0.8590     1.1360 h1         1 ELM       0.052200
     83 H35         -4.2530     1.7790    -1.2650 hc         1 ELM       0.052200
     84 H36         -4.6850     2.5420     0.2990 hc         1 ELM       0.052200
     85 H37         -3.3250     0.8070     1.4890 hc         1 ELM       0.062200
     86 H38         -2.8870     0.0870    -0.0590 hc         1 ELM       0.062200
     87 H39         -1.7410     2.2320    -0.7310 hc         1 ELM       0.045700
     88 H40         -2.2590     2.9690     0.7770 hc         1 ELM       0.045700
     89 H41         -0.8760     1.3330     2.0760 h1         1 ELM       0.068700
     90 H42          0.8780     2.6200    -0.0660 h1         1 ELM       0.077700
     91 H43          1.4930     2.3520     2.9060 h1         1 ELM       0.096700
     92 H44          2.6610     4.1930     1.5990 h1         1 ELM       0.050200
     93 H45          3.7390     3.0180     2.3700 h1         1 ELM       0.050200
     94 H46          4.3730     4.6460    -0.2070 h2         1 ELM       0.070700
     95 H47          5.8780     3.8220    -1.9400 h1         1 ELM       0.064700
     96 H48          3.1920     2.8880    -1.9830 ho         1 ELM       0.512000
     97 H49          4.9150     0.9940    -1.2290 h1         1 ELM       0.061700
     98 H50          5.5150     1.6400    -3.4730 ho         1 ELM       0.469000
     99 H51          7.1270     0.5370    -0.3670 h1         1 ELM       0.047700
    100 H52          8.0000     2.1670    -1.9350 ho         1 ELM       0.522000
    101 H53          5.5130     1.4520     1.2320 h1         1 ELM       0.048700
    102 H54          7.8060     1.0870     2.0900 h1         1 ELM       0.037200
    103 H55          8.2560     2.7410     1.6600 h1         1 ELM       0.037200
    104 H56          7.7340     2.6070     3.8830 ho         1 ELM       0.506000
    105 H57          1.7790     0.2490     0.9760 hn         1 ELM       0.306500
    106 H58         10.4420    -5.1030    -2.4370 hc         1 ELM       0.037200
    107 H59         11.1230    -5.2650    -0.8170 hc         1 ELM       0.037200
    108 H60         10.8750    -7.7630    -0.9660 hc         1 ELM       0.036700
    109 H61         10.2040    -7.5990    -2.5890 hc         1 ELM       0.036700
    110 H62         12.3610    -6.5620    -3.3710 hc         1 ELM       0.036700
    111 H63         13.0290    -6.7300    -1.7480 hc         1 ELM       0.036700
    112 H64         12.1490    -9.0630    -3.5540 hc         1 ELM       0.031367
    113 H65         13.8240    -8.5750    -3.2180 hc         1 ELM       0.031367
    114 H66         12.8150    -9.2360    -1.9130 hc         1 ELM       0.031367
    115 C24         -1.9470     2.0200     0.3250 c3         1 ELM      -0.109400
    116 H17        -15.8400     0.3660     0.0910 ha         1 ELM       0.110000
@<TRIPOS>BOND
     1     1     4 1   
     2     1    44 1   
     3     1    50 1   
     4     1    51 1   
     5     2    22 2   
     6     3    27 1   
     7     3    52 1   
     8     4     5 1   
     9     4    53 1   
    10     4    54 1   
    11     5     7 1   
    12     5    55 1   
    13     5    56 1   
    14     6    28 1   
    15     6    57 1   
    16     7     8 1   
    17     7    58 1   
    18     7    59 1   
    19     8     9 1   
    20     8    60 1   
    21     8    61 1   
    22     9    10 1   
    23     9    62 1   
    24     9    63 1   
    25    10    46 1   
    26    10    64 1   
    27    10    65 1   
    28    11    12 ar  
    29    11    16 ar  
    30    11   116 1   
    31    12    13 ar  
    32    12    66 1   
    33    13    14 ar  
    34    13    67 1   
    35    14    15 ar  
    36    14    68 1   
    37    15    16 ar  
    38    15    69 1   
    39    16    17 1   
    40    17    18 1   
    41    17    70 1   
    42    17    71 1   
    43    18    19 1   
    44    18    72 1   
    45    18    73 1   
    46    19    20 1   
    47    19    74 1   
    48    19    75 1   
    49    20    21 1   
    50    20    76 1   
    51    20    77 1   
    52    21    24 1   
    53    21    78 1   
    54    21    79 1   
    55    22    23 1   
    56    22    25 1   
    57    23    24 1   
    58    23    80 1   
    59    24    81 1   
    60    24    82 1   
    61    25    26 1   
    62    25    83 1   
    63    25    84 1   
    64    26    85 1   
    65    26    86 1   
    66    26   115 1   
    67    27    28 1   
    68    27    89 1   
    69    27   115 1   
    70    28    29 1   
    71    28    90 1   
    72    29    30 1   
    73    29    43 1   
    74    29    91 1   
    75    30    31 1   
    76    30    92 1   
    77    30    93 1   
    78    31    32 1   
    79    32    33 1   
    80    32    42 1   
    81    32    94 1   
    82    33    34 1   
    83    33    35 1   
    84    33    95 1   
    85    34    96 1   
    86    35    36 1   
    87    35    37 1   
    88    35    97 1   
    89    36    98 1   
    90    37    38 1   
    91    37    39 1   
    92    37    99 1   
    93    38   100 1   
    94    39    40 1   
    95    39    42 1   
    96    39   101 1   
    97    40    41 1   
    98    40   102 1   
    99    40   103 1   
   100    41   104 1   
   101    43    44 1   
   102    43   105 1   
   103    44    45 2   
   104    46    47 1   
   105    46   106 1   
   106    46   107 1   
   107    47    48 1   
   108    47   108 1   
   109    47   109 1   
   110    48    49 1   
   111    48   110 1   
   112    48   111 1   
   113    49   112 1   
   114    49   113 1   
   115    49   114 1   
   116    87   115 1   
   117    88   115 1   
@<TRIPOS>SUBSTRUCTURE
     1 ELM         1 TEMP              0 ****  ****    0 ROOT
