@<TRIPOS>MOLECULE
ELN
   20    20     1     0     0
SMALL
No Charge or Current Charge


@<TRIPOS>ATOM
      1 C10          3.7830     0.7770     0.4950 c3         1 ELN      -0.106300
      2 N12          5.1330    -0.1370    -1.5610 n1         1 ELN      -0.426000
      3 C01         -0.5990    -0.7380     0.5940 ca         1 ELN      -0.140500
      4 C02         -1.9850    -0.9610     0.5060 ca         1 ELN      -0.074500
      5 C03         -2.8230     0.0160    -0.0530 ca         1 ELN       0.094000
      6 C04         -2.2770     1.2190    -0.5270 ca         1 ELN      -0.074500
      7 C05         -0.8910     1.4430    -0.4390 ca         1 ELN      -0.140500
      8 C06         -0.0380     0.4700     0.1200 ca         1 ELN      -0.022000
      9 C08          2.4490     0.0570     0.6470 c          1 ELN       0.614100
     10 C11          4.5300     0.2530    -0.6440 c1         1 ELN       0.306900
     11 N07          1.3530     0.7700     0.1730 ns         1 ELN      -0.145000
     12 O09          2.3830    -1.0600     1.1470 o          1 ELN      -0.550100
     13 H1           3.6270     1.8480     0.3240 hc         1 ELN       0.089200
     14 H2           4.3850     0.6160     1.3940 hc         1 ELN       0.089200
     15 H3           0.0160    -1.5170     1.0320 ha         1 ELN       0.133500
     16 H4          -2.4110    -1.8920     0.8720 ha         1 ELN       0.132500
     17 H5          -2.9260     1.9760    -0.9600 ha         1 ELN       0.132500
     18 H6          -0.4800     2.3800    -0.8100 ha         1 ELN       0.133500
     19 H7           1.5850     1.6770    -0.2110 hn         1 ELN       0.153000
     20 Cl1         -4.5560    -0.2660    -0.1610 cl         1 ELN      -0.198000
@<TRIPOS>BOND
     1     1     9 1   
     2     1    10 1   
     3     1    13 1   
     4     1    14 1   
     5     2    10 3   
     6     3     4 ar  
     7     3     8 ar  
     8     3    15 1   
     9     4     5 ar  
    10     4    16 1   
    11     5     6 ar  
    12     5    20 1   
    13     6     7 ar  
    14     6    17 1   
    15     7     8 ar  
    16     7    18 1   
    17     8    11 1   
    18     9    11 1   
    19     9    12 2   
    20    11    19 1   
@<TRIPOS>SUBSTRUCTURE
     1 ELN         1 TEMP              0 ****  ****    0 ROOT
