@<TRIPOS>MOLECULE
ELN
   20    20     1     0     0
SMALL
abcg2


@<TRIPOS>ATOM
      1 C10          3.6850     0.8110     0.0740 c3         1 ELN      -0.106300
      2 N12          5.7330    -0.7820     0.2250 n1         1 ELN      -0.426000
      3 C01         -0.5520    -0.7790     0.2650 ca         1 ELN      -0.140500
      4 C02         -1.9200    -1.0080     0.2760 ca         1 ELN      -0.074500
      5 C03         -2.8050     0.0420     0.1030 ca         1 ELN       0.094000
      6 C04         -2.3340     1.3330    -0.0820 ca         1 ELN      -0.074500
      7 C05         -0.9710     1.5610    -0.0940 ca         1 ELN      -0.140500
      8 C06         -0.0640     0.5140     0.0790 ca         1 ELN      -0.022000
      9 C08          2.3710     0.0420     0.1490 c          1 ELN       0.614100
     10 C11          4.8190    -0.0880     0.1590 c1         1 ELN       0.306900
     11 N07          1.2940     0.8510     0.0550 ns         1 ELN      -0.145000
     12 O09          2.3410    -1.1630     0.2790 o          1 ELN      -0.550100
     13 H1           3.7470     1.3750    -0.8610 hc         1 ELN       0.089200
     14 H2           3.7490     1.5390     0.8860 hc         1 ELN       0.089200
     15 H3           0.1140    -1.6150     0.4010 ha         1 ELN       0.133500
     16 H4          -2.2870    -2.0150     0.4210 ha         1 ELN       0.132500
     17 H5          -3.0190     2.1580    -0.2180 ha         1 ELN       0.132500
     18 H6          -0.6090     2.5720    -0.2420 ha         1 ELN       0.133500
     19 H7           1.4810     1.8370    -0.0600 hn         1 ELN       0.153000
     20 CL1         -4.5120    -0.2550     0.1200 cl         1 ELN      -0.198000
@<TRIPOS>BOND
     1     1     9 1   
     2     1    10 1   
     3     1    13 1   
     4     1    14 1   
     5     2    10 3   
     6     3     4 ar  
     7     3     8 ar  
     8     3    15 1   
     9     4     5 ar  
    10     4    16 1   
    11     5     6 ar  
    12     5    20 1   
    13     6     7 ar  
    14     6    17 1   
    15     7     8 ar  
    16     7    18 1   
    17     8    11 1   
    18     9    11 1   
    19     9    12 2   
    20    11    19 1   
@<TRIPOS>SUBSTRUCTURE
     1 ELN         1 TEMP              0 ****  ****    0 ROOT
