@<TRIPOS>MOLECULE
ELO
  160   164     1     0     0
SMALL
abcg2


@<TRIPOS>ATOM
      1 CBW        -11.2920    43.6980    44.9080 c6         1 ELO      -0.107900
      2 CCA        -12.6040    44.4080    44.6020 c6         1 ELO       0.133800
      3 OAM        -13.3050    44.7760    45.7940 oh         1 ELO      -0.673000
      4 CCC        -13.5320    43.4920    43.8130 c6         1 ELO       0.129300
      5 OAO        -13.9620    42.3890    44.6080 oh         1 ELO      -0.711000
      6 CCE        -12.8090    42.9850    42.5690 c6         1 ELO       0.174800
      7 CCK        -13.6180    41.9950    41.7590 c3         1 ELO      -0.081100
      8 OAI        -11.5650    42.3450    42.9050 os         1 ELO      -0.470500
      9 CBQ        -10.6570    43.1480    43.6380 c6         1 ELO       0.384300
     10 OAC        -10.1860    44.2370    42.8740 os         1 ELO      -0.496000
     11 CAW         -9.2240    43.8980    41.8610 c6         1 ELO       0.178300
     12 CAY         -7.8330    43.8390    42.4800 c6         1 ELO      -0.137400
     13 CAU         -9.3020    44.9410    40.7520 c6         1 ELO      -0.088700
     14 CBG        -10.6880    44.9470    40.0740 c3         1 ELO      -0.063900
     15 CBS        -11.6000    46.0720    40.5570 c3         1 ELO      -0.092100
     16 CBC         -8.1700    44.6920    39.7470 c6         1 ELO       0.180800
     17 CBM         -8.0060    45.8080    38.7310 c3         1 ELO      -0.086600
     18 OAA         -6.8900    44.6070    40.4040 os         1 ELO      -0.482000
     19 CAS         -6.7470    43.6530    41.4210 c6         1 ELO       0.404500
     20 OAE         -6.8780    42.3570    40.7940 oh         1 ELO      -0.695000
     21 CBA         -5.3210    43.8510    41.9880 c3         1 ELO      -0.085200
     22 CBK         -5.0400    42.9560    43.1960 c3         1 ELO      -0.085100
     23 CBE         -4.2560    43.7020    40.8830 c3         1 ELO       0.177300
     24 OAG         -4.1410    42.3370    40.4540 oh         1 ELO      -0.690500
     25 CBI         -2.8490    44.1660    41.2900 c3         1 ELO      -0.072700
     26 CBU         -2.8480    45.5560    41.9300 c3         1 ELO      -0.085100
     27 CBO         -1.9180    44.0770    40.0720 c3         1 ELO       0.178300
     28 CBY         -0.4140    44.3130    40.3640 c3         1 ELO      -0.045000
     29 CCG          0.1360    43.2520    41.3230 c3         1 ELO      -0.084600
     30 CCI          0.3450    44.3190    39.0720 c2         1 ELO      -0.174700
     31 CCO          0.7040    45.4360    38.4250 ce         1 ELO      -0.206000
     32 CCS          1.2440    45.4430    37.0890 ce         1 ELO      -0.091000
     33 CCR          1.3100    46.5530    36.3330 cf         1 ELO      -0.278200
     34 CCN          1.5970    46.4920    34.9020 c          1 ELO       0.602800
     35 OAL          1.1700    47.6050    34.2810 os         1 ELO      -0.461600
     36 OAR          2.1140    45.5530    34.3120 o          1 ELO      -0.497000
     37 OAK         -2.3300    45.0920    39.1180 os         1 ELO      -0.461600
     38 CCM         -2.4560    44.7510    37.8190 c          1 ELO       0.602800
     39 OAQ         -2.5460    43.6020    37.4270 o          1 ELO      -0.497000
     40 CCQ         -2.4050    45.9440    36.9670 ce         1 ELO      -0.278200
     41 CCT         -2.2160    45.8390    35.6410 cf         1 ELO      -0.091000
     42 CCP         -1.8380    46.9420    34.7940 cf         1 ELO      -0.206000
     43 CCJ         -1.3630    46.7680    33.5540 c2         1 ELO      -0.174700
     44 CBZ         -0.6620    47.8240    32.7540 c3         1 ELO      -0.045000
     45 CCH         -1.1290    47.8340    31.2960 c3         1 ELO      -0.084600
     46 CBP          0.8530    47.5350    32.8600 c3         1 ELO       0.178300
     47 CBJ          1.7950    48.4540    32.0810 c3         1 ELO      -0.072700
     48 CBV          1.6240    49.9280    32.4500 c3         1 ELO      -0.085100
     49 CBF          3.2510    47.9840    32.2770 c3         1 ELO       0.177300
     50 OAH          3.3870    46.5800    31.9620 oh         1 ELO      -0.690500
     51 CBB          4.2800    48.7600    31.4410 c3         1 ELO      -0.085200
     52 CBL          4.0160    48.6560    29.9370 c3         1 ELO      -0.085100
     53 CAT          5.7250    48.3450    31.8100 c6         1 ELO       0.404500
     54 CAZ          6.7760    49.2330    31.1450 c6         1 ELO      -0.137400
     55 OAF          5.9960    47.0070    31.4350 oh         1 ELO      -0.695000
     56 OAB          5.8080    48.4980    33.2250 os         1 ELO      -0.482000
     57 CBD          7.0890    48.2080    33.8080 c6         1 ELO       0.180800
     58 CBN          6.9030    48.3290    35.3070 c3         1 ELO      -0.086600
     59 CAV          8.1620    49.1460    33.2370 c6         1 ELO      -0.088700
     60 CBH          9.5490    48.9430    33.8670 c3         1 ELO      -0.063900
     61 CBT         10.1260    47.5320    33.7510 c3         1 ELO      -0.092100
     62 CAX          8.1700    49.0040    31.7170 c6         1 ELO       0.178300
     63 OAD          9.0800    49.9800    31.1790 os         1 ELO      -0.496000
     64 CBR          9.5910    49.6890    29.8980 c6         1 ELO       0.384300
     65 CBX         10.2250    50.9580    29.3440 c6         1 ELO      -0.107900
     66 OAJ         10.5130    48.6130    29.9250 os         1 ELO      -0.470500
     67 CCF         11.7250    48.8730    30.6540 c6         1 ELO       0.174800
     68 CCL         12.5510    47.6040    30.6140 c3         1 ELO      -0.081100
     69 CCD         12.4540    50.0950    30.1020 c6         1 ELO       0.129300
     70 OAP         12.9460    49.8220    28.7930 oh         1 ELO      -0.711000
     71 CCB         11.5070    51.2980    30.0830 c6         1 ELO       0.133800
     72 OAN         12.1170    52.4040    29.4040 oh         1 ELO      -0.673000
     73 H1         -11.4870    42.8620    45.5810 hc         1 ELO       0.070200
     74 H2         -10.5910    44.3770    45.3970 hc         1 ELO       0.070200
     75 H3         -12.4140    45.2980    43.9950 h1         1 ELO       0.055200
     76 H4         -12.6950    45.2370    46.3840 ho         1 ELO       0.448000
     77 H5         -14.4030    44.0720    43.4810 h1         1 ELO       0.041700
     78 H6         -14.1830    42.7470    45.4800 ho         1 ELO       0.514500
     79 H7         -12.5970    43.8650    41.9560 h1         1 ELO       0.046700
     80 H8         -14.5660    42.4450    41.4590 hc         1 ELO       0.048867
     81 H9         -13.0700    41.7110    40.8590 hc         1 ELO       0.048867
     82 H10        -13.8270    41.0970    42.3410 hc         1 ELO       0.048867
     83 H11         -9.8370    42.4700    43.8810 h2         1 ELO       0.069700
     84 H12         -9.4920    42.9250    41.4400 h1         1 ELO       0.064200
     85 H13         -7.7790    43.0350    43.2130 hc         1 ELO       0.061450
     86 H14         -7.6410    44.7780    43.0030 hc         1 ELO       0.061450
     87 H15         -9.1180    45.9220    41.2070 hc         1 ELO       0.065200
     88 H16        -11.1700    43.9810    40.2440 hc         1 ELO       0.041700
     89 H17        -10.5720    45.0320    38.9920 hc         1 ELO       0.041700
     90 H18        -12.5770    46.0230    40.0710 hc         1 ELO       0.034867
     91 H19        -11.7540    46.0170    41.6360 hc         1 ELO       0.034867
     92 H20        -11.1610    47.0470    40.3310 hc         1 ELO       0.034867
     93 H21         -8.3560    43.7440    39.2310 h1         1 ELO       0.055200
     94 H22         -8.9010    45.9260    38.1230 hc         1 ELO       0.045200
     95 H23         -7.8040    46.7520    39.2410 hc         1 ELO       0.045200
     96 H24         -7.1700    45.5850    38.0670 hc         1 ELO       0.045200
     97 H25         -7.1760    41.7100    41.4470 ho         1 ELO       0.471000
     98 H26         -5.3040    44.8920    42.3120 hc         1 ELO       0.067200
     99 H27         -4.0150    43.0920    43.5390 hc         1 ELO       0.040367
    100 H28         -5.6990    43.1960    44.0300 hc         1 ELO       0.040367
    101 H29         -5.1680    41.9020    42.9490 hc         1 ELO       0.040367
    102 H30         -4.5770    44.3160    40.0370 h1         1 ELO       0.063700
    103 H31         -5.0520    42.0210    40.3340 ho         1 ELO       0.474500
    104 H32         -2.4700    43.4430    42.0140 hc         1 ELO       0.065200
    105 H33         -3.3570    45.5440    42.8930 hc         1 ELO       0.039533
    106 H34         -1.8320    45.9060    42.1070 hc         1 ELO       0.039533
    107 H35         -3.3480    46.2850    41.2910 hc         1 ELO       0.039533
    108 H36         -2.0400    43.1050    39.6040 h1         1 ELO       0.084700
    109 H37         -0.3110    45.3010    40.8170 hc         1 ELO       0.065200
    110 H38         -0.3280    43.3240    42.3060 hc         1 ELO       0.042200
    111 H39         -0.0420    42.2470    40.9320 hc         1 ELO       0.042200
    112 H40          1.2120    43.3820    41.4490 hc         1 ELO       0.042200
    113 H41          0.5370    43.3530    38.6110 ha         1 ELO       0.179500
    114 H42          0.4830    46.4020    38.8710 ha         1 ELO       0.180000
    115 H43          1.5140    44.4880    36.6490 ha         1 ELO       0.193000
    116 H44          0.9890    47.5100    36.7220 ha         1 ELO       0.197500
    117 H45         -2.3590    46.9020    37.4680 ha         1 ELO       0.197500
    118 H46         -2.2260    44.8500    35.1920 ha         1 ELO       0.193000
    119 H47         -1.8160    47.9310    35.2430 ha         1 ELO       0.180000
    120 H48         -1.3650    45.7670    33.1250 ha         1 ELO       0.179500
    121 H49         -0.8580    48.7970    33.2100 hc         1 ELO       0.065200
    122 H50         -2.2120    47.9550    31.2520 hc         1 ELO       0.042200
    123 H51         -0.6740    48.6520    30.7370 hc         1 ELO       0.042200
    124 H52         -0.8720    46.8950    30.7990 hc         1 ELO       0.042200
    125 H53          1.0160    46.5100    32.5320 h1         1 ELO       0.084700
    126 H54          1.5370    48.3130    31.0290 hc         1 ELO       0.065200
    127 H55          0.5800    50.2330    32.3820 hc         1 ELO       0.039533
    128 H56          1.9650    50.1160    33.4700 hc         1 ELO       0.039533
    129 H57          2.1930    50.5700    31.7790 hc         1 ELO       0.039533
    130 H58          3.5100    48.1250    33.3260 h1         1 ELO       0.063700
    131 H59          3.0380    46.0720    32.7160 ho         1 ELO       0.474500
    132 H60          4.2000    49.8050    31.7400 hc         1 ELO       0.067200
    133 H61          3.0260    49.0410    29.6930 hc         1 ELO       0.040367
    134 H62          4.7390    49.2390    29.3690 hc         1 ELO       0.040367
    135 H63          4.0710    47.6220    29.5970 hc         1 ELO       0.040367
    136 H64          6.5020    50.2760    31.3160 hc         1 ELO       0.061450
    137 H65          6.7740    49.0520    30.0720 hc         1 ELO       0.061450
    138 H66          5.1820    46.5060    31.6350 ho         1 ELO       0.471000
    139 H67          7.3460    47.1750    33.5590 h1         1 ELO       0.055200
    140 H68          6.0680    47.7040    35.6270 hc         1 ELO       0.045200
    141 H69          7.7950    48.0020    35.8390 hc         1 ELO       0.045200
    142 H70          6.6910    49.3640    35.5870 hc         1 ELO       0.045200
    143 H71          7.8400    50.1700    33.4620 hc         1 ELO       0.065200
    144 H72          9.4980    49.2260    34.9200 hc         1 ELO       0.041700
    145 H73         10.2320    49.6530    33.3970 hc         1 ELO       0.041700
    146 H74         11.1400    47.5040    34.1520 hc         1 ELO       0.034867
    147 H75          9.5310    46.8030    34.3040 hc         1 ELO       0.034867
    148 H76         10.1750    47.1980    32.7130 hc         1 ELO       0.034867
    149 H77          8.5290    48.0090    31.4450 h1         1 ELO       0.064200
    150 H78          8.7940    49.3390    29.2390 h2         1 ELO       0.069700
    151 H79         10.4540    50.7920    28.2900 hc         1 ELO       0.070200
    152 H80          9.5140    51.7810    29.4130 hc         1 ELO       0.070200
    153 H81         11.4670    49.1060    31.6900 h1         1 ELO       0.046700
    154 H82         13.4780    47.7450    31.1730 hc         1 ELO       0.048867
    155 H83         11.9960    46.7820    31.0660 hc         1 ELO       0.048867
    156 H84         12.8010    47.3380    29.5870 hc         1 ELO       0.048867
    157 H85         13.2930    50.3150    30.7760 h1         1 ELO       0.041700
    158 H86         13.1350    50.6810    28.3890 ho         1 ELO       0.514500
    159 H87         11.2830    51.5740    31.1170 h1         1 ELO       0.055200
    160 H88         12.8170    52.7610    29.9670 ho         1 ELO       0.448000
@<TRIPOS>BOND
     1     1     2 1   
     2     1     9 1   
     3     1    73 1   
     4     1    74 1   
     5     2     3 1   
     6     2     4 1   
     7     2    75 1   
     8     3    76 1   
     9     4     5 1   
    10     4     6 1   
    11     4    77 1   
    12     5    78 1   
    13     6     7 1   
    14     6     8 1   
    15     6    79 1   
    16     7    80 1   
    17     7    81 1   
    18     7    82 1   
    19     8     9 1   
    20     9    10 1   
    21     9    83 1   
    22    10    11 1   
    23    11    12 1   
    24    11    13 1   
    25    11    84 1   
    26    12    19 1   
    27    12    85 1   
    28    12    86 1   
    29    13    14 1   
    30    13    16 1   
    31    13    87 1   
    32    14    15 1   
    33    14    88 1   
    34    14    89 1   
    35    15    90 1   
    36    15    91 1   
    37    15    92 1   
    38    16    17 1   
    39    16    18 1   
    40    16    93 1   
    41    17    94 1   
    42    17    95 1   
    43    17    96 1   
    44    18    19 1   
    45    19    20 1   
    46    19    21 1   
    47    20    97 1   
    48    21    22 1   
    49    21    23 1   
    50    21    98 1   
    51    22    99 1   
    52    22   100 1   
    53    22   101 1   
    54    23    24 1   
    55    23    25 1   
    56    23   102 1   
    57    24   103 1   
    58    25    26 1   
    59    25    27 1   
    60    25   104 1   
    61    26   105 1   
    62    26   106 1   
    63    26   107 1   
    64    27    28 1   
    65    27    37 1   
    66    27   108 1   
    67    28    29 1   
    68    28    30 1   
    69    28   109 1   
    70    29   110 1   
    71    29   111 1   
    72    29   112 1   
    73    30    31 2   
    74    30   113 1   
    75    31    32 1   
    76    31   114 1   
    77    32    33 2   
    78    32   115 1   
    79    33    34 1   
    80    33   116 1   
    81    34    35 1   
    82    34    36 2   
    83    35    46 1   
    84    37    38 1   
    85    38    39 2   
    86    38    40 1   
    87    40    41 2   
    88    40   117 1   
    89    41    42 1   
    90    41   118 1   
    91    42    43 2   
    92    42   119 1   
    93    43    44 1   
    94    43   120 1   
    95    44    45 1   
    96    44    46 1   
    97    44   121 1   
    98    45   122 1   
    99    45   123 1   
   100    45   124 1   
   101    46    47 1   
   102    46   125 1   
   103    47    48 1   
   104    47    49 1   
   105    47   126 1   
   106    48   127 1   
   107    48   128 1   
   108    48   129 1   
   109    49    50 1   
   110    49    51 1   
   111    49   130 1   
   112    50   131 1   
   113    51    52 1   
   114    51    53 1   
   115    51   132 1   
   116    52   133 1   
   117    52   134 1   
   118    52   135 1   
   119    53    54 1   
   120    53    55 1   
   121    53    56 1   
   122    54    62 1   
   123    54   136 1   
   124    54   137 1   
   125    55   138 1   
   126    56    57 1   
   127    57    58 1   
   128    57    59 1   
   129    57   139 1   
   130    58   140 1   
   131    58   141 1   
   132    58   142 1   
   133    59    60 1   
   134    59    62 1   
   135    59   143 1   
   136    60    61 1   
   137    60   144 1   
   138    60   145 1   
   139    61   146 1   
   140    61   147 1   
   141    61   148 1   
   142    62    63 1   
   143    62   149 1   
   144    63    64 1   
   145    64    65 1   
   146    64    66 1   
   147    64   150 1   
   148    65    71 1   
   149    65   151 1   
   150    65   152 1   
   151    66    67 1   
   152    67    68 1   
   153    67    69 1   
   154    67   153 1   
   155    68   154 1   
   156    68   155 1   
   157    68   156 1   
   158    69    70 1   
   159    69    71 1   
   160    69   157 1   
   161    70   158 1   
   162    71    72 1   
   163    71   159 1   
   164    72   160 1   
@<TRIPOS>SUBSTRUCTURE
     1 ELO         1 TEMP              0 ****  ****    0 ROOT
