@<TRIPOS>MOLECULE
ELO
  160   164     1     0     0
SMALL
No Charge or Current Charge


@<TRIPOS>ATOM
      1 CBW        -11.4760    44.5630    45.2570 c6         1 ELO      -0.107900
      2 CCA        -12.9360    44.7810    44.7800 c6         1 ELO       0.133800
      3 OAM        -13.7210    45.3290    45.8550 oh         1 ELO      -0.673000
      4 CCC        -13.5750    43.4440    44.2980 c6         1 ELO       0.129300
      5 OAO        -13.8210    42.6220    45.4560 oh         1 ELO      -0.711000
      6 CCE        -12.6180    42.7730    43.2580 c6         1 ELO       0.174800
      7 CCK        -13.1120    41.3860    42.7760 c3         1 ELO      -0.081100
      8 OAI        -11.2960    42.5850    43.8140 os         1 ELO      -0.470500
      9 CBQ        -10.6280    43.8030    44.2090 c6         1 ELO       0.384300
     10 OAC        -10.3930    44.6320    43.0500 os         1 ELO      -0.496000
     11 CAW         -9.4750    44.1120    42.0600 c6         1 ELO       0.178300
     12 CAY         -8.0210    44.1360    42.6090 c6         1 ELO      -0.137400
     13 CAU         -9.5790    44.9220    40.7250 c6         1 ELO      -0.088700
     14 CBG        -11.0190    44.8730    40.0950 c3         1 ELO      -0.063900
     15 CBS        -12.0590    45.8440    40.6970 c3         1 ELO      -0.092100
     16 CBC         -8.4870    44.3910    39.7400 c6         1 ELO       0.180800
     17 CBM         -8.3500    45.2130    38.4290 c3         1 ELO      -0.086600
     18 OAA         -7.1840    44.4620    40.3570 os         1 ELO      -0.482000
     19 CAS         -6.9930    43.6840    41.5440 c6         1 ELO       0.404500
     20 OAE         -7.1820    42.3120    41.2040 oh         1 ELO      -0.695000
     21 CBA         -5.4940    43.9050    41.9840 c3         1 ELO      -0.085200
     22 CBK         -5.1010    43.1130    43.2700 c3         1 ELO      -0.085100
     23 CBE         -4.4730    43.6840    40.8070 c3         1 ELO       0.177300
     24 OAG         -4.6000    42.3260    40.3700 oh         1 ELO      -0.690500
     25 CBI         -2.9640    43.9970    41.0980 c3         1 ELO      -0.072700
     26 CBU         -2.7610    45.4070    41.7320 c3         1 ELO      -0.085100
     27 CBO         -2.0970    43.7880    39.8060 c3         1 ELO       0.178300
     28 CBY         -0.5360    43.8200    39.9980 c3         1 ELO      -0.045000
     29 CCG         -0.0140    42.6420    40.8530 c3         1 ELO      -0.084600
     30 CCI          0.2040    43.8690    38.6670 c2         1 ELO      -0.174700
     31 CCO          0.6120    45.0050    38.0590 ce         1 ELO      -0.206000
     32 CCS          1.1790    45.0550    36.7090 ce         1 ELO      -0.091000
     33 CCR          1.1890    46.1920    35.9580 cf         1 ELO      -0.278200
     34 CCN          1.5750    46.2580    34.5310 c          1 ELO       0.602800
     35 OAL          1.2120    47.4590    33.9880 os         1 ELO      -0.461600
     36 OAR          2.0960    45.3450    33.9050 o          1 ELO      -0.497000
     37 OAK         -2.4530    44.8340    38.8680 os         1 ELO      -0.461600
     38 CCM         -2.6240    44.5140    37.5440 c          1 ELO       0.602800
     39 OAQ         -2.7660    43.3800    37.1080 o          1 ELO      -0.497000
     40 CCQ         -2.3630    45.6980    36.6870 ce         1 ELO      -0.278200
     41 CCT         -2.2560    45.6660    35.3280 cf         1 ELO      -0.091000
     42 CCP         -1.7840    46.7880    34.5320 cf         1 ELO      -0.206000
     43 CCJ         -1.3890    46.6820    33.2420 c2         1 ELO      -0.174700
     44 CBZ         -0.6450    47.7620    32.4680 c3         1 ELO      -0.045000
     45 CCH         -1.1470    47.8260    31.0070 c3         1 ELO      -0.084600
     46 CBP          0.8950    47.5050    32.5780 c3         1 ELO       0.178300
     47 CBJ          1.8740    48.5120    31.8920 c3         1 ELO      -0.072700
     48 CBV          1.6150    49.9830    32.3280 c3         1 ELO      -0.085100
     49 CBF          3.3710    48.0830    32.1090 c3         1 ELO       0.177300
     50 OAH          3.5380    46.7010    31.7360 oh         1 ELO      -0.690500
     51 CBB          4.4650    48.9480    31.3800 c3         1 ELO      -0.085200
     52 CBL          4.2430    49.0030    29.8360 c3         1 ELO      -0.085100
     53 CAT          5.9320    48.5490    31.7920 c6         1 ELO       0.404500
     54 CAZ          7.0230    49.4860    31.2120 c6         1 ELO      -0.137400
     55 OAF          6.1510    47.2110    31.3900 oh         1 ELO      -0.695000
     56 OAB          5.9760    48.5970    33.2270 os         1 ELO      -0.482000
     57 CBD          7.2270    48.2220    33.8410 c6         1 ELO       0.180800
     58 CBN          6.9710    48.2500    35.3700 c3         1 ELO      -0.086600
     59 CAV          8.3540    49.1920    33.3750 c6         1 ELO      -0.088700
     60 CBH          9.7410    48.8970    34.0420 c3         1 ELO      -0.063900
     61 CBT         10.3160    47.4800    33.8150 c3         1 ELO      -0.092100
     62 CAX          8.4210    49.1910    31.8190 c6         1 ELO       0.178300
     63 OAD          9.3840    50.1750    31.3750 os         1 ELO      -0.496000
     64 CBR          9.8240    50.0640    30.0060 c6         1 ELO       0.384300
     65 CBX         10.5680    51.3510    29.5780 c6         1 ELO      -0.107900
     66 OAJ         10.6900    48.9170    29.8680 os         1 ELO      -0.470500
     67 CCF         11.9210    48.9930    30.6270 c6         1 ELO       0.174800
     68 CCL         12.6500    47.6360    30.4560 c3         1 ELO      -0.081100
     69 CCD         12.7840    50.2190    30.1810 c6         1 ELO       0.129300
     70 OAP         13.2400    50.1220    28.8160 oh         1 ELO      -0.711000
     71 CCB         11.9200    51.5090    30.3220 c6         1 ELO       0.133800
     72 OAN         12.6350    52.6380    29.7870 oh         1 ELO      -0.673000
     73 H1         -11.4650    43.9930    46.1960 hc         1 ELO       0.070200
     74 H2         -11.0010    45.5280    45.4770 hc         1 ELO       0.070200
     75 H3         -12.9240    45.4800    43.9300 h1         1 ELO       0.055200
     76 H4         -13.4170    46.2540    45.9910 ho         1 ELO       0.448000
     77 H5         -14.5260    43.6750    43.7970 h1         1 ELO       0.041700
     78 H6         -13.9840    43.2900    46.1670 ho         1 ELO       0.514500
     79 H7         -12.5440    43.4190    42.3730 h1         1 ELO       0.046700
     80 H8         -14.1130    41.4580    42.3360 hc         1 ELO       0.048867
     81 H9         -12.4420    40.9780    42.0110 hc         1 ELO       0.048867
     82 H10        -13.1580    40.6650    43.6010 hc         1 ELO       0.048867
     83 H11         -9.6680    43.5480    44.6820 h2         1 ELO       0.069700
     84 H12         -9.7530    43.0700    41.8390 h1         1 ELO       0.064200
     85 H13         -7.9420    43.4880    43.4890 hc         1 ELO       0.061450
     86 H14         -7.7770    45.1530    42.9450 hc         1 ELO       0.061450
     87 H15         -9.3570    45.9770    40.9360 hc         1 ELO       0.065200
     88 H16        -11.4140    43.8510    40.1500 hc         1 ELO       0.041700
     89 H17        -10.9790    45.1100    39.0280 hc         1 ELO       0.041700
     90 H18        -12.9980    45.7870    40.1340 hc         1 ELO       0.034867
     91 H19        -12.2850    45.6110    41.7400 hc         1 ELO       0.034867
     92 H20        -11.6960    46.8770    40.6460 hc         1 ELO       0.034867
     93 H21         -8.7020    43.3470    39.4660 h1         1 ELO       0.055200
     94 H22         -9.1850    45.0330    37.7430 hc         1 ELO       0.045200
     95 H23         -8.3030    46.2890    38.6350 hc         1 ELO       0.045200
     96 H24         -7.4360    44.9360    37.8890 hc         1 ELO       0.045200
     97 H25         -7.4060    41.8560    42.0430 ho         1 ELO       0.471000
     98 H26         -5.4270    44.9660    42.2510 hc         1 ELO       0.067200
     99 H27         -4.0860    43.3620    43.6000 hc         1 ELO       0.040367
    100 H28         -5.7650    43.3540    44.1060 hc         1 ELO       0.040367
    101 H29         -5.1430    42.0300    43.1010 hc         1 ELO       0.040367
    102 H30         -4.7730    44.3540    39.9890 h1         1 ELO       0.063700
    103 H31         -5.5690    42.1340    40.4790 ho         1 ELO       0.474500
    104 H32         -2.6220    43.2620    41.8330 hc         1 ELO       0.065200
    105 H33         -3.2730    45.4890    42.6960 hc         1 ELO       0.039533
    106 H34         -1.7050    45.6150    41.9310 hc         1 ELO       0.039533
    107 H35         -3.1480    46.1950    41.0740 hc         1 ELO       0.039533
    108 H36         -2.3430    42.7960    39.4040 h1         1 ELO       0.084700
    109 H37         -0.2770    44.7350    40.5400 hc         1 ELO       0.065200
    110 H38         -0.4110    42.6840    41.8740 hc         1 ELO       0.042200
    111 H39         -0.2990    41.6800    40.4100 hc         1 ELO       0.042200
    112 H40          1.0800    42.6750    40.9230 hc         1 ELO       0.042200
    113 H41          0.3280    42.9020    38.1760 ha         1 ELO       0.179500
    114 H42          0.4300    45.9670    38.5420 ha         1 ELO       0.180000
    115 H43          1.5100    44.1140    36.2620 ha         1 ELO       0.193000
    116 H44          0.7910    47.1120    36.3800 ha         1 ELO       0.197500
    117 H45         -2.1540    46.6220    37.2200 ha         1 ELO       0.197500
    118 H46         -2.4210    44.7170    34.8100 ha         1 ELO       0.193000
    119 H47         -1.6230    47.7320    35.0580 ha         1 ELO       0.180000
    120 H48         -1.4900    45.7270    32.7220 ha         1 ELO       0.179500
    121 H49         -0.8690    48.7290    32.9330 hc         1 ELO       0.065200
    122 H50         -2.2350    47.9570    30.9820 hc         1 ELO       0.042200
    123 H51         -0.6970    48.6710    30.4720 hc         1 ELO       0.042200
    124 H52         -0.9000    46.9040    30.4660 hc         1 ELO       0.042200
    125 H53          1.0520    46.5280    32.1010 h1         1 ELO       0.084700
    126 H54          1.6640    48.4490    30.8190 hc         1 ELO       0.065200
    127 H55          0.5750    50.2760    32.1510 hc         1 ELO       0.039533
    128 H56          1.8340    50.1200    33.3940 hc         1 ELO       0.039533
    129 H57          2.2320    50.6840    31.7570 hc         1 ELO       0.039533
    130 H58          3.5590    48.1810    33.1880 h1         1 ELO       0.063700
    131 H59          3.0810    46.1620    32.4290 ho         1 ELO       0.474500
    132 H60          4.3400    49.9760    31.7360 hc         1 ELO       0.067200
    133 H61          3.2540    49.4010    29.5870 hc         1 ELO       0.040367
    134 H62          4.9690    49.6650    29.3510 hc         1 ELO       0.040367
    135 H63          4.3350    48.0080    29.3850 hc         1 ELO       0.040367
    136 H64          6.7510    50.5320    31.4080 hc         1 ELO       0.061450
    137 H65          7.0630    49.3650    30.1240 hc         1 ELO       0.061450
    138 H66          5.2360    46.8330    31.4550 ho         1 ELO       0.471000
    139 H67          7.4740    47.1890    33.5550 h1         1 ELO       0.055200
    140 H68          6.0930    47.6460    35.6290 hc         1 ELO       0.045200
    141 H69          7.8210    47.8380    35.9260 hc         1 ELO       0.045200
    142 H70          6.7940    49.2710    35.7270 hc         1 ELO       0.045200
    143 H71          8.0800    50.2060    33.6960 hc         1 ELO       0.065200
    144 H72          9.6770    49.0700    35.1220 hc         1 ELO       0.041700
    145 H73         10.4800    49.6260    33.6870 hc         1 ELO       0.041700
    146 H74         11.3100    47.3990    34.2700 hc         1 ELO       0.034867
    147 H75          9.6750    46.7170    34.2710 hc         1 ELO       0.034867
    148 H76         10.4140    47.2560    32.7480 hc         1 ELO       0.034867
    149 H77          8.7470    48.1950    31.4840 h1         1 ELO       0.064200
    150 H78          8.9540    49.9420    29.3440 h2         1 ELO       0.069700
    151 H79         10.7290    51.3230    28.4930 hc         1 ELO       0.070200
    152 H80          9.9300    52.2230    29.7720 hc         1 ELO       0.070200
    153 H81         11.6770    49.1050    31.6930 h1         1 ELO       0.046700
    154 H82         13.5870    47.6210    31.0240 hc         1 ELO       0.048867
    155 H83         12.0290    46.8090    30.8180 hc         1 ELO       0.048867
    156 H84         12.8900    47.4380    29.4050 hc         1 ELO       0.048867
    157 H85         13.6480    50.3020    30.8580 h1         1 ELO       0.041700
    158 H86         13.2650    51.0630    28.5160 ho         1 ELO       0.514500
    159 H87         11.7070    51.6670    31.3900 h1         1 ELO       0.055200
    160 H88         13.1600    53.0240    30.5240 ho         1 ELO       0.448000
@<TRIPOS>BOND
     1     1     2 1   
     2     1     9 1   
     3     1    73 1   
     4     1    74 1   
     5     2     3 1   
     6     2     4 1   
     7     2    75 1   
     8     3    76 1   
     9     4     5 1   
    10     4     6 1   
    11     4    77 1   
    12     5    78 1   
    13     6     7 1   
    14     6     8 1   
    15     6    79 1   
    16     7    80 1   
    17     7    81 1   
    18     7    82 1   
    19     8     9 1   
    20     9    10 1   
    21     9    83 1   
    22    10    11 1   
    23    11    12 1   
    24    11    13 1   
    25    11    84 1   
    26    12    19 1   
    27    12    85 1   
    28    12    86 1   
    29    13    14 1   
    30    13    16 1   
    31    13    87 1   
    32    14    15 1   
    33    14    88 1   
    34    14    89 1   
    35    15    90 1   
    36    15    91 1   
    37    15    92 1   
    38    16    17 1   
    39    16    18 1   
    40    16    93 1   
    41    17    94 1   
    42    17    95 1   
    43    17    96 1   
    44    18    19 1   
    45    19    20 1   
    46    19    21 1   
    47    20    97 1   
    48    21    22 1   
    49    21    23 1   
    50    21    98 1   
    51    22    99 1   
    52    22   100 1   
    53    22   101 1   
    54    23    24 1   
    55    23    25 1   
    56    23   102 1   
    57    24   103 1   
    58    25    26 1   
    59    25    27 1   
    60    25   104 1   
    61    26   105 1   
    62    26   106 1   
    63    26   107 1   
    64    27    28 1   
    65    27    37 1   
    66    27   108 1   
    67    28    29 1   
    68    28    30 1   
    69    28   109 1   
    70    29   110 1   
    71    29   111 1   
    72    29   112 1   
    73    30    31 2   
    74    30   113 1   
    75    31    32 1   
    76    31   114 1   
    77    32    33 2   
    78    32   115 1   
    79    33    34 1   
    80    33   116 1   
    81    34    35 1   
    82    34    36 2   
    83    35    46 1   
    84    37    38 1   
    85    38    39 2   
    86    38    40 1   
    87    40    41 2   
    88    40   117 1   
    89    41    42 1   
    90    41   118 1   
    91    42    43 2   
    92    42   119 1   
    93    43    44 1   
    94    43   120 1   
    95    44    45 1   
    96    44    46 1   
    97    44   121 1   
    98    45   122 1   
    99    45   123 1   
   100    45   124 1   
   101    46    47 1   
   102    46   125 1   
   103    47    48 1   
   104    47    49 1   
   105    47   126 1   
   106    48   127 1   
   107    48   128 1   
   108    48   129 1   
   109    49    50 1   
   110    49    51 1   
   111    49   130 1   
   112    50   131 1   
   113    51    52 1   
   114    51    53 1   
   115    51   132 1   
   116    52   133 1   
   117    52   134 1   
   118    52   135 1   
   119    53    54 1   
   120    53    55 1   
   121    53    56 1   
   122    54    62 1   
   123    54   136 1   
   124    54   137 1   
   125    55   138 1   
   126    56    57 1   
   127    57    58 1   
   128    57    59 1   
   129    57   139 1   
   130    58   140 1   
   131    58   141 1   
   132    58   142 1   
   133    59    60 1   
   134    59    62 1   
   135    59   143 1   
   136    60    61 1   
   137    60   144 1   
   138    60   145 1   
   139    61   146 1   
   140    61   147 1   
   141    61   148 1   
   142    62    63 1   
   143    62   149 1   
   144    63    64 1   
   145    64    65 1   
   146    64    66 1   
   147    64   150 1   
   148    65    71 1   
   149    65   151 1   
   150    65   152 1   
   151    66    67 1   
   152    67    68 1   
   153    67    69 1   
   154    67   153 1   
   155    68   154 1   
   156    68   155 1   
   157    68   156 1   
   158    69    70 1   
   159    69    71 1   
   160    69   157 1   
   161    70   158 1   
   162    71    72 1   
   163    71   159 1   
   164    72   160 1   
@<TRIPOS>SUBSTRUCTURE
     1 ELO         1 TEMP              0 ****  ****    0 ROOT
