@<TRIPOS>MOLECULE
ELQ
   31    32     1     0     0
SMALL
No Charge or Current Charge


@<TRIPOS>ATOM
      1 C10         -0.9390     0.4690     0.2320 ca         1 ELQ      -0.133600
      2 C13         -3.5520    -0.6140     0.3130 ca         1 ELQ       0.148000
      3 C15         -1.9140     0.8700    -0.7110 ca         1 ELQ      -0.087000
      4 C03          3.9000     0.6810    -0.1410 c6         1 ELQ       0.140300
      5 C04          2.8520     1.0180     0.9540 c6         1 ELQ       0.095500
      6 C06          1.6810    -1.1090     0.4730 c6         1 ELQ       0.095500
      7 C07          2.7550    -1.4350    -0.6050 c6         1 ELQ       0.140300
      8 C08          0.4420     1.0920     0.1840 c          1 ELQ       0.616700
      9 C11         -1.3060    -0.4600     1.2370 ca         1 ELQ      -0.076000
     10 C12         -2.6030    -1.0020     1.2710 ca         1 ELQ      -0.137000
     11 C14         -3.2090     0.3260    -0.6750 ca         1 ELQ       0.126000
     12 F16         -4.1220     0.7160    -1.5950 f          1 ELQ      -0.157000
     13 F17         -4.7980    -1.1400     0.3550 f          1 ELQ      -0.157000
     14 N02          4.0660    -0.7910    -0.3080 n3         1 ELQ      -0.715600
     15 N05          1.5370     0.3610     0.6980 n          1 ELQ      -0.404800
     16 O09          0.5880     2.2420    -0.2140 o          1 ELQ      -0.590100
     17 H1          -1.6670     1.5980    -1.4800 ha         1 ELQ       0.149000
     18 H2           6.0720    -0.6930    -1.0190 h1         1 ELQ       0.033033
     19 H3           5.2420    -2.2260    -1.3560 h1         1 ELQ       0.033033
     20 H4           4.8370    -0.7710    -2.2990 h1         1 ELQ       0.033033
     21 H5           3.5800     1.1390    -1.0890 h1         1 ELQ       0.042450
     22 H6           4.8590     1.1450     0.1350 h1         1 ELQ       0.042450
     23 H7           3.2320     0.6730     1.9260 h1         1 ELQ       0.063950
     24 H8           2.7360     2.1080     1.0270 h1         1 ELQ       0.063950
     25 H9           0.7330    -1.5570     0.1490 h1         1 ELQ       0.063950
     26 H10          1.9650    -1.5880     1.4200 h1         1 ELQ       0.063950
     27 H11          2.8700    -2.5270    -0.6660 h1         1 ELQ       0.042450
     28 H12          2.3810    -1.0960    -1.5830 h1         1 ELQ       0.042450
     29 H13         -0.5940    -0.7510     2.0070 ha         1 ELQ       0.130000
     30 H14         -2.8760    -1.7170     2.0430 ha         1 ELQ       0.139000
     31 C01          5.1080    -1.1370    -1.2990 c3         1 ELQ       0.152100
@<TRIPOS>BOND
     1     1     3 ar  
     2     1     8 1   
     3     1     9 ar  
     4     2    10 ar  
     5     2    11 ar  
     6     2    13 1   
     7     3    11 ar  
     8     3    17 1   
     9     4     5 1   
    10     4    14 1   
    11     4    21 1   
    12     4    22 1   
    13     5    15 1   
    14     5    23 1   
    15     5    24 1   
    16     6     7 1   
    17     6    15 1   
    18     6    25 1   
    19     6    26 1   
    20     7    14 1   
    21     7    27 1   
    22     7    28 1   
    23     8    15 1   
    24     8    16 2   
    25     9    10 ar  
    26     9    29 1   
    27    10    30 1   
    28    11    12 1   
    29    14    31 1   
    30    18    31 1   
    31    19    31 1   
    32    20    31 1   
@<TRIPOS>SUBSTRUCTURE
     1 ELQ         1 TEMP              0 ****  ****    0 ROOT
