@<TRIPOS>MOLECULE
ELQ
   31    32     1     0     0
SMALL
abcg2


@<TRIPOS>ATOM
      1 C10         -0.8440     0.4400     0.3520 ca         1 ELQ      -0.133600
      2 C13         -3.3810    -0.6550     0.2160 ca         1 ELQ       0.148000
      3 C15         -1.6580     0.7160    -0.7430 ca         1 ELQ      -0.087000
      4 C03          3.8250     0.6620    -0.1980 c6         1 ELQ       0.140300
      5 C04          2.8620     0.9960     0.9280 c6         1 ELQ       0.095500
      6 C06          1.6560    -1.0550     0.4870 c6         1 ELQ       0.095500
      7 C07          2.6420    -1.3590    -0.6290 c6         1 ELQ       0.140300
      8 C08          0.4790     1.1370     0.4530 c          1 ELQ       0.616700
      9 C11         -1.3170    -0.3680     1.3800 ca         1 ELQ      -0.076000
     10 C12         -2.5920    -0.9140     1.3160 ca         1 ELQ      -0.137000
     11 C14         -2.9120     0.1500    -0.8100 ca         1 ELQ       0.126000
     12 F16         -3.6980     0.3790    -1.8650 f          1 ELQ      -0.157000
     13 F17         -4.6070    -1.1730     0.1250 f          1 ELQ      -0.157000
     14 N02          3.9380    -0.7740    -0.3580 n3         1 ELQ      -0.715600
     15 N05          1.5660     0.3810     0.6950 n          1 ELQ      -0.404800
     16 O09          0.5120     2.3570     0.3500 o          1 ELQ      -0.590100
     17 H1          -1.3190     1.3530    -1.5490 ha         1 ELQ       0.149000
     18 H2           5.8810    -0.7080    -1.1130 h1         1 ELQ       0.033033
     19 H3           5.0130    -2.2100    -1.4250 h1         1 ELQ       0.033033
     20 H4           4.6390    -0.7620    -2.3740 h1         1 ELQ       0.033033
     21 H5           3.4860     1.1560    -1.1260 h1         1 ELQ       0.042450
     22 H6           4.8070     1.0740     0.0450 h1         1 ELQ       0.042450
     23 H7           3.2590     0.6120     1.8730 h1         1 ELQ       0.063950
     24 H8           2.7480     2.0710     1.0240 h1         1 ELQ       0.063950
     25 H9           0.6860    -1.4660     0.2210 h1         1 ELQ       0.063950
     26 H10          1.9800    -1.5340     1.4150 h1         1 ELQ       0.063950
     27 H11          2.7480    -2.4440    -0.7120 h1         1 ELQ       0.042450
     28 H12          2.2200    -1.0010    -1.5850 h1         1 ELQ       0.042450
     29 H13         -0.7000    -0.5750     2.2440 ha         1 ELQ       0.130000
     30 H14         -2.9710    -1.5340     2.1170 ha         1 ELQ       0.139000
     31 C01          4.9070    -1.1260    -1.3700 c3         1 ELQ       0.152100
@<TRIPOS>BOND
     1     1     3 ar  
     2     1     8 1   
     3     1     9 ar  
     4     2    10 ar  
     5     2    11 ar  
     6     2    13 1   
     7     3    11 ar  
     8     3    17 1   
     9     4     5 1   
    10     4    14 1   
    11     4    21 1   
    12     4    22 1   
    13     5    15 1   
    14     5    23 1   
    15     5    24 1   
    16     6     7 1   
    17     6    15 1   
    18     6    25 1   
    19     6    26 1   
    20     7    14 1   
    21     7    27 1   
    22     7    28 1   
    23     8    15 1   
    24     8    16 2   
    25     9    10 ar  
    26     9    29 1   
    27    10    30 1   
    28    11    12 1   
    29    14    31 1   
    30    18    31 1   
    31    19    31 1   
    32    20    31 1   
@<TRIPOS>SUBSTRUCTURE
     1 ELQ         1 TEMP              0 ****  ****    0 ROOT
