@<TRIPOS>MOLECULE
ELS
  155   156     1     0     0
SMALL
bcc


@<TRIPOS>ATOM
      1 C1           5.8050     2.6120    -1.4800 c3         1 ELS       0.087700
      2 O2           3.5390     1.4710    -2.7390 o          1 ELS      -0.597100
      3 C3           7.4470     0.6380    -1.3290 c3         1 ELS       0.115100
      4 C4           8.6170     0.0560    -0.5410 c3         1 ELS      -0.111400
      5 C5           9.1060    -1.2790    -1.0900 c3         1 ELS      -0.061400
      6 C6          10.2740    -1.8130    -0.2770 c3         1 ELS      -0.161400
      7 C7          10.7980    -3.1500    -0.7580 c          1 ELS       0.673100
      8 C8          15.0570    -8.3270    -0.2940 c3         1 ELS      -0.026100
      9 C9          14.3760    -9.4360     0.5120 c3         1 ELS      -0.074400
     10 C11         14.5370   -11.8180     1.3850 c3         1 ELS      -0.075400
     11 C12         15.3960   -13.0710     1.4910 c3         1 ELS      -0.088100
     12 C43        -28.0050    -0.5990     0.8310 c3         1 ELS      -0.088100
     13 C42        -26.7750    -0.5840    -0.0660 c3         1 ELS      -0.074400
     14 C41        -25.4720    -0.5210     0.7220 c3         1 ELS      -0.075400
     15 C40        -24.2300    -0.5050    -0.1610 c3         1 ELS      -0.074400
     16 C39        -22.9310    -0.4300     0.6320 c3         1 ELS      -0.074400
     17 C38        -21.6880    -0.4130    -0.2480 c3         1 ELS      -0.074400
     18 C37        -20.3900    -0.3270     0.5460 c3         1 ELS      -0.074400
     19 C36        -19.1450    -0.3090    -0.3330 c3         1 ELS      -0.074400
     20 C35        -17.8490    -0.2140     0.4620 c3         1 ELS      -0.074400
     21 C34        -16.6040    -0.1950    -0.4170 c3         1 ELS      -0.074400
     22 C33        -15.3070    -0.0930     0.3760 c3         1 ELS      -0.074400
     23 C32        -14.0640    -0.0730    -0.5050 c3         1 ELS      -0.074400
     24 C31        -12.7660     0.0380     0.2850 c3         1 ELS      -0.074400
     25 C44        -11.5260     0.0590    -0.6000 c3         1 ELS      -0.074400
     26 C29        -10.2250     0.1760     0.1840 c3         1 ELS      -0.074400
     27 C28         -8.9890     0.1990    -0.7080 c3         1 ELS      -0.074400
     28 C27         -7.6840     0.3230     0.0680 c3         1 ELS      -0.073400
     29 C26         -6.4540     0.3490    -0.8320 c3         1 ELS      -0.075400
     30 C25         -5.1430     0.4780    -0.0680 c3         1 ELS      -0.073400
     31 C24         -3.9230     0.5130    -0.9800 c3         1 ELS      -0.075400
     32 C23         -2.6040     0.6450    -0.2290 c3         1 ELS      -0.073400
     33 C22         -1.3970     0.7050    -1.1560 c3         1 ELS      -0.076400
     34 C21         -0.0690     0.8340    -0.4220 c3         1 ELS      -0.075400
     35 C20          1.1130     0.9780    -1.3720 c3         1 ELS      -0.063400
     36 C19          2.4400     1.0820    -0.6360 c3         1 ELS      -0.149400
     37 N            4.6420     2.0300    -0.8500 ns         1 ELS      -0.572900
     38 C            5.7000     4.1300    -1.4180 c3         1 ELS       0.121400
     39 OC1          5.7150     4.5290    -0.0620 os         1 ELS      -0.428600
     40 CG1          5.1600     5.7760     0.1940 c6         1 ELS       0.311900
     41 OG           3.7620     5.7750     0.0870 os         1 ELS      -0.402600
     42 CG           3.0970     4.9290     1.0100 c6         1 ELS       0.152100
     43 CG5          1.6160     4.9650     0.7000 c3         1 ELS       0.146400
     44 OG6          1.4110     4.3580    -0.5540 oh         1 ELS      -0.593800
     45 CG4          3.4080     5.3200     2.4480 c6         1 ELS       0.124100
     46 OG5          2.8420     6.5800     2.7150 oh         1 ELS      -0.590800
     47 CG3          4.9220     5.3230     2.6460 c6         1 ELS       0.118100
     48 OG4          5.1800     5.7690     3.9560 oh         1 ELS      -0.610800
     49 CG2          5.5790     6.2150     1.6010 c6         1 ELS       0.093100
     50 OG3          6.9700     6.1610     1.7920 oh         1 ELS      -0.587800
     51 C2           7.0970     2.0600    -0.8420 c3         1 ELS       0.106100
     52 O1           8.1940     2.9130    -1.0730 oh         1 ELS      -0.578800
     53 O32          6.3420    -0.2350    -1.3380 oh         1 ELS      -0.570800
     54 O           10.2360    -3.8160    -1.6100 o          1 ELS      -0.574100
     55 N1          11.9440    -3.5300    -0.1340 ns         1 ELS      -0.476100
     56 C18         12.6710    -4.7200    -0.2450 ca         1 ELS       0.071600
     57 C13         12.4280    -5.7170    -1.1910 ca         1 ELS      -0.167000
     58 C14         13.2170    -6.8600    -1.2040 ca         1 ELS      -0.098500
     59 C17         13.7200    -4.9020     0.6600 ca         1 ELS      -0.167000
     60 C16         14.4930    -6.0480     0.6290 ca         1 ELS      -0.098500
     61 C15         14.2570    -7.0560    -0.3020 ca         1 ELS      -0.103300
     62 C10         15.2130   -10.7050     0.5940 c3         1 ELS      -0.076400
     63 H1           5.7810     2.3350    -2.5380 h1         1 ELS       0.094700
     64 H2           7.7430     0.7270    -2.3830 h1         1 ELS       0.070700
     65 H3           9.4410     0.7730    -0.5390 hc         1 ELS       0.047200
     66 H4           8.3140    -0.0630     0.5070 hc         1 ELS       0.047200
     67 H5           8.2910    -2.0040    -1.0870 hc         1 ELS       0.064200
     68 H6           9.4090    -1.1530    -2.1330 hc         1 ELS       0.064200
     69 H7          11.0950    -1.0900    -0.2700 hc         1 ELS       0.056200
     70 H8           9.9770    -1.9270     0.7720 hc         1 ELS       0.056200
     71 H9          16.0480    -8.1360     0.1280 hc         1 ELS       0.045200
     72 H10         15.2180    -8.6760    -1.3180 hc         1 ELS       0.045200
     73 H11         14.1680    -9.0680     1.5220 hc         1 ELS       0.042200
     74 H12         13.4030    -9.6620     0.0630 hc         1 ELS       0.042200
     75 H13         13.5800   -12.0660     0.9140 hc         1 ELS       0.037200
     76 H14         14.2950   -11.4530     2.3880 hc         1 ELS       0.037200
     77 H15         14.8990   -13.8520     2.0660 hc         1 ELS       0.031033
     78 H16         15.6220   -13.4790     0.5040 hc         1 ELS       0.031033
     79 H17         16.3470   -12.8530     1.9820 hc         1 ELS       0.031033
     80 H18        -28.0460     0.2960     1.4560 hc         1 ELS       0.031367
     81 H19        -28.9280    -0.6390     0.2520 hc         1 ELS       0.031367
     82 H20        -27.9950    -1.4640     1.4970 hc         1 ELS       0.031367
     83 H21        -26.7720    -1.4760    -0.7010 hc         1 ELS       0.036700
     84 H22        -26.8280     0.2720    -0.7470 hc         1 ELS       0.036700
     85 H23        -25.4770     0.3720     1.3570 hc         1 ELS       0.036700
     86 H24        -25.4200    -1.3760     1.4050 hc         1 ELS       0.036700
     87 H25        -24.2210    -1.4020    -0.7910 hc         1 ELS       0.036700
     88 H26        -24.2860     0.3470    -0.8490 hc         1 ELS       0.036700
     89 H27        -22.9420     0.4680     1.2600 hc         1 ELS       0.036700
     90 H28        -22.8760    -1.2800     1.3210 hc         1 ELS       0.036700
     91 H29        -21.6730    -1.3130    -0.8730 hc         1 ELS       0.036700
     92 H30        -21.7460     0.4340    -0.9410 hc         1 ELS       0.036700
     93 H31        -20.4060     0.5740     1.1700 hc         1 ELS       0.036700
     94 H32        -20.3320    -1.1730     1.2400 hc         1 ELS       0.036700
     95 H33        -19.1260    -1.2120    -0.9530 hc         1 ELS       0.037200
     96 H34        -19.2070     0.5340    -1.0290 hc         1 ELS       0.037200
     97 H35        -17.8690     0.6890     1.0820 hc         1 ELS       0.036700
     98 H36        -17.7870    -1.0570     1.1590 hc         1 ELS       0.036700
     99 H37        -16.5820    -1.1010    -1.0340 hc         1 ELS       0.037200
    100 H38        -16.6690     0.6450    -1.1170 hc         1 ELS       0.037200
    101 H39        -15.3300     0.8130     0.9930 hc         1 ELS       0.036700
    102 H40        -15.2420    -0.9330     1.0770 hc         1 ELS       0.036700
    103 H41        -14.0400    -0.9810    -1.1180 hc         1 ELS       0.037200
    104 H42        -14.1340     0.7650    -1.2080 hc         1 ELS       0.037200
    105 H43        -12.7900     0.9460     0.8980 hc         1 ELS       0.036700
    106 H44        -12.6950    -0.8000     0.9880 hc         1 ELS       0.036700
    107 H45        -11.5010    -0.8510    -1.2110 hc         1 ELS       0.037200
    108 H46        -11.6010     0.8940    -1.3060 hc         1 ELS       0.037200
    109 H47        -10.2480     1.0860     0.7940 hc         1 ELS       0.037200
    110 H48        -10.1480    -0.6590     0.8890 hc         1 ELS       0.037200
    111 H49         -8.9650    -0.7120    -1.3160 hc         1 ELS       0.037700
    112 H50         -9.0700     1.0320    -1.4160 hc         1 ELS       0.037700
    113 H51         -7.7070     1.2340     0.6770 hc         1 ELS       0.036700
    114 H52         -7.5990    -0.5100     0.7740 hc         1 ELS       0.036700
    115 H53         -6.4320    -0.5630    -1.4400 hc         1 ELS       0.037700
    116 H54         -6.5440     1.1800    -1.5410 hc         1 ELS       0.037700
    117 H55         -5.1660     1.3880     0.5430 hc         1 ELS       0.036700
    118 H56         -5.0470    -0.3560     0.6360 hc         1 ELS       0.036700
    119 H57         -3.9020    -0.3970    -1.5910 hc         1 ELS       0.038200
    120 H58         -4.0240     1.3460    -1.6840 hc         1 ELS       0.038200
    121 H59         -2.6270     1.5480     0.3930 hc         1 ELS       0.035700
    122 H60         -2.4920    -0.1960     0.4640 hc         1 ELS       0.035700
    123 H61         -1.3780    -0.1920    -1.7860 hc         1 ELS       0.040700
    124 H62         -1.5140     1.5510    -1.8420 hc         1 ELS       0.040700
    125 H63         -0.1010     1.7080     0.2390 hc         1 ELS       0.032200
    126 H64          0.0750    -0.0350     0.2300 hc         1 ELS       0.032200
    127 H65          1.1340     0.1310    -2.0640 hc         1 ELS       0.057700
    128 H66          0.9640     1.8700    -1.9840 hc         1 ELS       0.057700
    129 H67          2.3420     1.7770     0.2020 hc         1 ELS       0.051700
    130 H68          2.7100     0.1160    -0.1980 hc         1 ELS       0.051700
    131 H69          4.5760     2.1110     0.1520 hn         1 ELS       0.307500
    132 H70          6.5170     4.6070    -1.9700 h1         1 ELS       0.049200
    133 H71          4.7620     4.4170    -1.9050 h1         1 ELS       0.049200
    134 H72          5.5010     6.5140    -0.5460 h2         1 ELS       0.069700
    135 H73          3.4330     3.8920     0.8860 h1         1 ELS       0.047700
    136 H74          1.0920     4.4270     1.5000 h1         1 ELS       0.037200
    137 H75          1.2540     6.0000     0.7140 h1         1 ELS       0.037200
    138 H76          0.4650     4.3360    -0.7240 ho         1 ELS       0.408000
    139 H77          2.9770     4.5460     3.1020 h1         1 ELS       0.047700
    140 H78          3.1330     6.8560     3.5910 ho         1 ELS       0.423000
    141 H79          5.2800     4.2920     2.5090 h1         1 ELS       0.060700
    142 H80          6.1290     5.9100     4.0480 ho         1 ELS       0.430000
    143 H81          5.2050     7.2380     1.7390 h1         1 ELS       0.064700
    144 H82          7.3720     6.9300     1.3760 ho         1 ELS       0.413000
    145 H83          6.9640     2.0440     0.2470 h1         1 ELS       0.077700
    146 H84          8.4140     2.8870    -2.0110 ho         1 ELS       0.399000
    147 H85          6.0470    -0.3670    -0.4300 ho         1 ELS       0.397000
    148 H86         12.2960    -2.8880     0.5600 hn         1 ELS       0.312500
    149 H87         11.6380    -5.6130    -1.9150 ha         1 ELS       0.144500
    150 H88         13.0090    -7.6200    -1.9500 ha         1 ELS       0.130500
    151 H89         13.9310    -4.1360     1.3970 ha         1 ELS       0.144500
    152 H90         15.2990    -6.1570     1.3450 ha         1 ELS       0.130500
    153 H91         15.4370   -11.0630    -0.4170 hc         1 ELS       0.036700
    154 H92         16.1800   -10.4710     1.0520 hc         1 ELS       0.036700
    155 C30          3.5810     1.5410    -1.5190 c          1 ELS       0.680100
@<TRIPOS>BOND
     1     1    37 1   
     2     1    38 1   
     3     1    51 1   
     4     1    63 1   
     5     2   155 2   
     6     3     4 1   
     7     3    51 1   
     8     3    53 1   
     9     3    64 1   
    10     4     5 1   
    11     4    65 1   
    12     4    66 1   
    13     5     6 1   
    14     5    67 1   
    15     5    68 1   
    16     6     7 1   
    17     6    69 1   
    18     6    70 1   
    19     7    54 2   
    20     7    55 1   
    21     8     9 1   
    22     8    61 1   
    23     8    71 1   
    24     8    72 1   
    25     9    62 1   
    26     9    73 1   
    27     9    74 1   
    28    10    11 1   
    29    10    62 1   
    30    10    75 1   
    31    10    76 1   
    32    11    77 1   
    33    11    78 1   
    34    11    79 1   
    35    12    13 1   
    36    12    80 1   
    37    12    81 1   
    38    12    82 1   
    39    13    14 1   
    40    13    83 1   
    41    13    84 1   
    42    14    15 1   
    43    14    85 1   
    44    14    86 1   
    45    15    16 1   
    46    15    87 1   
    47    15    88 1   
    48    16    17 1   
    49    16    89 1   
    50    16    90 1   
    51    17    18 1   
    52    17    91 1   
    53    17    92 1   
    54    18    19 1   
    55    18    93 1   
    56    18    94 1   
    57    19    20 1   
    58    19    95 1   
    59    19    96 1   
    60    20    21 1   
    61    20    97 1   
    62    20    98 1   
    63    21    22 1   
    64    21    99 1   
    65    21   100 1   
    66    22    23 1   
    67    22   101 1   
    68    22   102 1   
    69    23    24 1   
    70    23   103 1   
    71    23   104 1   
    72    24    25 1   
    73    24   105 1   
    74    24   106 1   
    75    25    26 1   
    76    25   107 1   
    77    25   108 1   
    78    26    27 1   
    79    26   109 1   
    80    26   110 1   
    81    27    28 1   
    82    27   111 1   
    83    27   112 1   
    84    28    29 1   
    85    28   113 1   
    86    28   114 1   
    87    29    30 1   
    88    29   115 1   
    89    29   116 1   
    90    30    31 1   
    91    30   117 1   
    92    30   118 1   
    93    31    32 1   
    94    31   119 1   
    95    31   120 1   
    96    32    33 1   
    97    32   121 1   
    98    32   122 1   
    99    33    34 1   
   100    33   123 1   
   101    33   124 1   
   102    34    35 1   
   103    34   125 1   
   104    34   126 1   
   105    35    36 1   
   106    35   127 1   
   107    35   128 1   
   108    36   129 1   
   109    36   130 1   
   110    36   155 1   
   111    37   131 1   
   112    37   155 1   
   113    38    39 1   
   114    38   132 1   
   115    38   133 1   
   116    39    40 1   
   117    40    41 1   
   118    40    49 1   
   119    40   134 1   
   120    41    42 1   
   121    42    43 1   
   122    42    45 1   
   123    42   135 1   
   124    43    44 1   
   125    43   136 1   
   126    43   137 1   
   127    44   138 1   
   128    45    46 1   
   129    45    47 1   
   130    45   139 1   
   131    46   140 1   
   132    47    48 1   
   133    47    49 1   
   134    47   141 1   
   135    48   142 1   
   136    49    50 1   
   137    49   143 1   
   138    50   144 1   
   139    51    52 1   
   140    51   145 1   
   141    52   146 1   
   142    53   147 1   
   143    55    56 1   
   144    55   148 1   
   145    56    57 ar  
   146    56    59 ar  
   147    57    58 ar  
   148    57   149 1   
   149    58    61 ar  
   150    58   150 1   
   151    59    60 ar  
   152    59   151 1   
   153    60    61 ar  
   154    60   152 1   
   155    62   153 1   
   156    62   154 1   
@<TRIPOS>SUBSTRUCTURE
     1 ELS         1 TEMP              0 ****  ****    0 ROOT
