@<TRIPOS>MOLECULE
ELS
  155   156     1     0     0
SMALL
No Charge or Current Charge


@<TRIPOS>ATOM
      1 C1           6.0190     2.1870    -1.3940 c3         1 ELS       0.087700
      2 O2           3.9160     1.7680    -3.3210 o          1 ELS      -0.597100
      3 C3           7.3750     0.2430    -0.2040 c3         1 ELS       0.138300
      4 C4           8.6300    -0.1230     0.6400 c3         1 ELS      -0.111400
      5 C5           8.9150    -1.6450     0.7220 c3         1 ELS      -0.061400
      6 C6          10.2050    -1.9730     1.5120 c3         1 ELS      -0.161400
      7 C7          10.4820    -3.4830     1.5450 c          1 ELS       0.606100
      8 C8          14.1280    -8.9140    -0.4230 c3         1 ELS      -0.026100
      9 C9          15.4120    -9.0920     0.4140 c3         1 ELS      -0.074400
     10 C11         17.4410   -10.5840     0.9540 c3         1 ELS      -0.075400
     11 C12         18.1830   -11.9020     0.6590 c3         1 ELS      -0.088100
     12 C43        -28.0610    -0.6380     0.2680 c3         1 ELS      -0.088100
     13 C42        -26.8000     0.2370     0.1240 c3         1 ELS      -0.074400
     14 C41        -25.4900    -0.5540     0.3280 c3         1 ELS      -0.075400
     15 C40        -24.2260     0.3230     0.1840 c3         1 ELS      -0.074400
     16 C39        -22.9150    -0.4710     0.3780 c3         1 ELS      -0.074400
     17 C38        -21.6520     0.4060     0.2310 c3         1 ELS      -0.074400
     18 C37        -20.3410    -0.3920     0.4060 c3         1 ELS      -0.074400
     19 C36        -19.0790     0.4850     0.2570 c3         1 ELS      -0.074400
     20 C35        -17.7660    -0.3140     0.4100 c3         1 ELS      -0.074400
     21 C34        -16.5070     0.5660     0.2580 c3         1 ELS      -0.074400
     22 C33        -15.1900    -0.2320     0.3830 c3         1 ELS      -0.074400
     23 C32        -13.9360     0.6540     0.2250 c3         1 ELS      -0.074400
     24 C31        -12.6150    -0.1410     0.3070 c3         1 ELS      -0.074400
     25 C44        -11.3670     0.7520     0.1370 c3         1 ELS      -0.074400
     26 C29        -10.0440    -0.0450     0.1610 c3         1 ELS      -0.074400
     27 C28         -8.7990     0.8500    -0.0240 c3         1 ELS      -0.074400
     28 C27         -7.4810     0.0480    -0.0620 c3         1 ELS      -0.073400
     29 C26         -6.2370     0.9410    -0.2630 c3         1 ELS      -0.075400
     30 C25         -4.9250     0.1330    -0.3690 c3         1 ELS      -0.073400
     31 C24         -3.6840     1.0250    -0.5910 c3         1 ELS      -0.075400
     32 C23         -2.3820     0.2110    -0.7660 c3         1 ELS      -0.073400
     33 C22         -1.1430     1.0970    -1.0210 c3         1 ELS      -0.076400
     34 C21          0.1430     0.2750    -1.2620 c3         1 ELS      -0.075400
     35 C20          1.3770     1.1560    -1.5490 c3         1 ELS      -0.063400
     36 C19          2.6540     0.3320    -1.8360 c3         1 ELS      -0.149400
     37 N            4.7970     1.3770    -1.2590 ns         1 ELS      -0.505900
     38 C            5.6860     3.7060    -1.3540 c3         1 ELS       0.144600
     39 OC1          5.0800     4.0120    -0.0810 os         1 ELS      -0.475000
     40 CG1          4.6490     5.3740     0.1160 c6         1 ELS       0.358300
     41 OG           3.5910     5.7020    -0.8130 os         1 ELS      -0.449000
     42 CG           2.3750     4.9220    -0.6450 c6         1 ELS       0.175300
     43 CG5          1.3680     5.2930    -1.7850 c3         1 ELS       0.169600
     44 OG6          1.8950     5.0820    -3.1110 oh         1 ELS      -0.716000
     45 CG4          1.7650     5.1360     0.7800 c6         1 ELS       0.147300
     46 OG5          1.3130     6.4890     1.0000 oh         1 ELS      -0.713000
     47 CG3          2.8460     4.7850     1.8450 c6         1 ELS       0.141300
     48 OG4          2.3530     5.0650     3.1700 oh         1 ELS      -0.673000
     49 CG2          4.1710     5.5750     1.5940 c6         1 ELS       0.116300
     50 OG3          5.1790     5.1530     2.5460 oh         1 ELS      -0.710000
     51 C2           7.1370     1.7920    -0.3660 c3         1 ELS       0.129300
     52 O1           8.3610     2.4490    -0.7620 oh         1 ELS      -0.641000
     53 O32          6.2350    -0.3760     0.4180 oh         1 ELS      -0.633000
     54 O            9.8250    -4.2370     2.2520 o          1 ELS      -0.574100
     55 N1          11.5420    -3.8810     0.7390 ns         1 ELS      -0.150000
     56 C18         12.1340    -5.1490     0.4860 ca         1 ELS      -0.021000
     57 C13         11.7030    -6.3510     1.0900 ca         1 ELS      -0.149000
     58 C14         12.3450    -7.5660     0.7930 ca         1 ELS      -0.080500
     59 C17         13.2110    -5.1920    -0.4170 ca         1 ELS      -0.149000
     60 C16         13.8520    -6.4060    -0.7150 ca         1 ELS      -0.080500
     61 C15         13.4230    -7.6010    -0.1110 ca         1 ELS      -0.103300
     62 C10         16.1550   -10.4130     0.1160 c3         1 ELS      -0.076400
     63 H1           6.4210     1.9780    -2.3950 h1         1 ELS       0.094700
     64 H2           7.5120    -0.1760    -1.2110 h1         1 ELS       0.070700
     65 H3           9.5130     0.3580     0.2030 hc         1 ELS       0.047200
     66 H4           8.5230     0.2850     1.6530 hc         1 ELS       0.047200
     67 H5           8.0680    -2.1600     1.1930 hc         1 ELS       0.064200
     68 H6           9.0040    -2.0480    -0.2960 hc         1 ELS       0.064200
     69 H7          11.0450    -1.4490     1.0400 hc         1 ELS       0.056200
     70 H8          10.0810    -1.6170     2.5420 hc         1 ELS       0.056200
     71 H9          14.3850    -8.9550    -1.4890 hc         1 ELS       0.045200
     72 H10         13.4550    -9.7610    -0.2380 hc         1 ELS       0.045200
     73 H11         16.0860    -8.2480     0.2220 hc         1 ELS       0.042200
     74 H12         15.1510    -9.0560     1.4790 hc         1 ELS       0.042200
     75 H13         17.1880   -10.5500     2.0220 hc         1 ELS       0.037200
     76 H14         18.1170    -9.7430     0.7580 hc         1 ELS       0.037200
     77 H15         19.0870   -11.9770     1.2750 hc         1 ELS       0.031033
     78 H16         17.5440   -12.7650     0.8800 hc         1 ELS       0.031033
     79 H17         18.4810   -11.9510    -0.3960 hc         1 ELS       0.031033
     80 H18        -28.1130    -1.0820     1.2700 hc         1 ELS       0.031367
     81 H19        -28.9640    -0.0350     0.1120 hc         1 ELS       0.031367
     82 H20        -28.0570    -1.4490    -0.4720 hc         1 ELS       0.031367
     83 H21        -26.7970     0.6960    -0.8740 hc         1 ELS       0.036700
     84 H22        -26.8490     1.0570     0.8530 hc         1 ELS       0.036700
     85 H23        -25.4970    -1.0130     1.3260 hc         1 ELS       0.036700
     86 H24        -25.4460    -1.3740    -0.4010 hc         1 ELS       0.036700
     87 H25        -24.2220     0.7880    -0.8110 hc         1 ELS       0.036700
     88 H26        -24.2670     1.1380     0.9190 hc         1 ELS       0.036700
     89 H27        -22.9180    -0.9360     1.3720 hc         1 ELS       0.036700
     90 H28        -22.8760    -1.2860    -0.3570 hc         1 ELS       0.036700
     91 H29        -21.6560     0.8790    -0.7600 hc         1 ELS       0.036700
     92 H30        -21.6850     1.2150     0.9720 hc         1 ELS       0.036700
     93 H31        -20.3350    -0.8660     1.3960 hc         1 ELS       0.036700
     94 H32        -20.3080    -1.2000    -0.3370 hc         1 ELS       0.036700
     95 H33        -19.0910     0.9700    -0.7280 hc         1 ELS       0.037200
     96 H34        -19.1040     1.2850     1.0080 hc         1 ELS       0.037200
     97 H35        -17.7500    -0.8000     1.3940 hc         1 ELS       0.036700
     98 H36        -17.7410    -1.1130    -0.3430 hc         1 ELS       0.036700
     99 H37        -16.5330     1.0650    -0.7190 hc         1 ELS       0.037200
    100 H38        -16.5240     1.3550     1.0210 hc         1 ELS       0.037200
    101 H39        -15.1600    -0.7320     1.3600 hc         1 ELS       0.036700
    102 H40        -15.1740    -1.0200    -0.3820 hc         1 ELS       0.036700
    103 H41        -13.9830     1.1730    -0.7410 hc         1 ELS       0.037200
    104 H42        -13.9410     1.4270     1.0040 hc         1 ELS       0.037200
    105 H43        -12.5610    -0.6580     1.2740 hc         1 ELS       0.036700
    106 H44        -12.6120    -0.9160    -0.4710 hc         1 ELS       0.036700
    107 H45        -11.4410     1.2940    -0.8150 hc         1 ELS       0.037200
    108 H46        -11.3510     1.5050     0.9350 hc         1 ELS       0.037200
    109 H47         -9.9620    -0.5840     1.1140 hc         1 ELS       0.037200
    110 H48        -10.0650    -0.8000    -0.6350 hc         1 ELS       0.037200
    111 H49         -8.9010     1.4180    -0.9570 hc         1 ELS       0.037700
    112 H50         -8.7560     1.5820     0.7930 hc         1 ELS       0.037700
    113 H51         -7.3730    -0.5180     0.8720 hc         1 ELS       0.036700
    114 H52         -7.5310    -0.6860    -0.8770 hc         1 ELS       0.036700
    115 H53         -6.3670     1.5360    -1.1760 hc         1 ELS       0.037700
    116 H54         -6.1610     1.6480     0.5720 hc         1 ELS       0.037700
    117 H55         -4.7870    -0.4580     0.5450 hc         1 ELS       0.036700
    118 H56         -5.0100    -0.5780    -1.2010 hc         1 ELS       0.036700
    119 H57         -3.8420     1.6440    -1.4830 hc         1 ELS       0.038200
    120 H58         -3.5730     1.7090     0.2590 hc         1 ELS       0.038200
    121 H59         -2.2130    -0.3990     0.1300 hc         1 ELS       0.035700
    122 H60         -2.5050    -0.4830    -1.6070 hc         1 ELS       0.035700
    123 H61         -1.3300     1.7340    -1.8950 hc         1 ELS       0.040700
    124 H62         -0.9930     1.7650    -0.1640 hc         1 ELS       0.040700
    125 H63          0.3420    -0.3520    -0.3840 hc         1 ELS       0.032200
    126 H64         -0.0180    -0.4030    -2.1100 hc         1 ELS       0.032200
    127 H65          1.1630     1.8050    -2.4080 hc         1 ELS       0.057700
    128 H66          1.5570     1.8120    -0.6880 hc         1 ELS       0.057700
    129 H67          2.9040    -0.2460    -0.9380 hc         1 ELS       0.051700
    130 H68          2.4500    -0.3470    -2.6720 hc         1 ELS       0.051700
    131 H69          4.6880     0.8250    -0.4150 hn         1 ELS       0.307500
    132 H70          6.6010     4.2940    -1.5000 h1         1 ELS       0.049200
    133 H71          5.0000     3.9460    -2.1770 h1         1 ELS       0.049200
    134 H72          5.5020     6.0460    -0.0650 h2         1 ELS       0.069700
    135 H73          2.6250     3.8590    -0.7650 h1         1 ELS       0.047700
    136 H74          0.4600     4.6910    -1.6430 h1         1 ELS       0.037200
    137 H75          1.0800     6.3470    -1.6620 h1         1 ELS       0.037200
    138 H76          1.2320     5.4410    -3.7460 ho         1 ELS       0.507000
    139 H77          0.9230     4.4380     0.9020 h1         1 ELS       0.047700
    140 H78          1.2900     6.5770     1.9840 ho         1 ELS       0.522000
    141 H79          3.0670     3.7110     1.7520 h1         1 ELS       0.060700
    142 H80          3.1530     5.0680     3.7470 ho         1 ELS       0.469000
    143 H81          3.9660     6.6470     1.7270 h1         1 ELS       0.064700
    144 H82          5.6300     4.3770     2.1330 ho         1 ELS       0.512000
    145 H83          6.8290     2.1710     0.6190 h1         1 ELS       0.077700
    146 H84          8.7080     1.9870    -1.5550 ho         1 ELS       0.438000
    147 H85          6.4010    -0.3830     1.3850 ho         1 ELS       0.436000
    148 H86         11.9770    -3.1230     0.2300 hn         1 ELS       0.146000
    149 H87         10.8760    -6.3680     1.7930 ha         1 ELS       0.126500
    150 H88         12.0050    -8.4830     1.2700 ha         1 ELS       0.112500
    151 H89         13.5590    -4.2770    -0.8940 ha         1 ELS       0.126500
    152 H90         14.6860    -6.4170    -1.4140 ha         1 ELS       0.112500
    153 H91         15.4820   -11.2580     0.3120 hc         1 ELS       0.036700
    154 H92         16.4120   -10.4490    -0.9500 hc         1 ELS       0.036700
    155 C30          3.8270     1.2390    -2.2230 c          1 ELS       0.613100
@<TRIPOS>BOND
     1     1    37 1   
     2     1    38 1   
     3     1    51 1   
     4     1    63 1   
     5     2   155 2   
     6     3     4 1   
     7     3    51 1   
     8     3    53 1   
     9     3    64 1   
    10     4     5 1   
    11     4    65 1   
    12     4    66 1   
    13     5     6 1   
    14     5    67 1   
    15     5    68 1   
    16     6     7 1   
    17     6    69 1   
    18     6    70 1   
    19     7    54 2   
    20     7    55 1   
    21     8     9 1   
    22     8    61 1   
    23     8    71 1   
    24     8    72 1   
    25     9    62 1   
    26     9    73 1   
    27     9    74 1   
    28    10    11 1   
    29    10    62 1   
    30    10    75 1   
    31    10    76 1   
    32    11    77 1   
    33    11    78 1   
    34    11    79 1   
    35    12    13 1   
    36    12    80 1   
    37    12    81 1   
    38    12    82 1   
    39    13    14 1   
    40    13    83 1   
    41    13    84 1   
    42    14    15 1   
    43    14    85 1   
    44    14    86 1   
    45    15    16 1   
    46    15    87 1   
    47    15    88 1   
    48    16    17 1   
    49    16    89 1   
    50    16    90 1   
    51    17    18 1   
    52    17    91 1   
    53    17    92 1   
    54    18    19 1   
    55    18    93 1   
    56    18    94 1   
    57    19    20 1   
    58    19    95 1   
    59    19    96 1   
    60    20    21 1   
    61    20    97 1   
    62    20    98 1   
    63    21    22 1   
    64    21    99 1   
    65    21   100 1   
    66    22    23 1   
    67    22   101 1   
    68    22   102 1   
    69    23    24 1   
    70    23   103 1   
    71    23   104 1   
    72    24    25 1   
    73    24   105 1   
    74    24   106 1   
    75    25    26 1   
    76    25   107 1   
    77    25   108 1   
    78    26    27 1   
    79    26   109 1   
    80    26   110 1   
    81    27    28 1   
    82    27   111 1   
    83    27   112 1   
    84    28    29 1   
    85    28   113 1   
    86    28   114 1   
    87    29    30 1   
    88    29   115 1   
    89    29   116 1   
    90    30    31 1   
    91    30   117 1   
    92    30   118 1   
    93    31    32 1   
    94    31   119 1   
    95    31   120 1   
    96    32    33 1   
    97    32   121 1   
    98    32   122 1   
    99    33    34 1   
   100    33   123 1   
   101    33   124 1   
   102    34    35 1   
   103    34   125 1   
   104    34   126 1   
   105    35    36 1   
   106    35   127 1   
   107    35   128 1   
   108    36   129 1   
   109    36   130 1   
   110    36   155 1   
   111    37   131 1   
   112    37   155 1   
   113    38    39 1   
   114    38   132 1   
   115    38   133 1   
   116    39    40 1   
   117    40    41 1   
   118    40    49 1   
   119    40   134 1   
   120    41    42 1   
   121    42    43 1   
   122    42    45 1   
   123    42   135 1   
   124    43    44 1   
   125    43   136 1   
   126    43   137 1   
   127    44   138 1   
   128    45    46 1   
   129    45    47 1   
   130    45   139 1   
   131    46   140 1   
   132    47    48 1   
   133    47    49 1   
   134    47   141 1   
   135    48   142 1   
   136    49    50 1   
   137    49   143 1   
   138    50   144 1   
   139    51    52 1   
   140    51   145 1   
   141    52   146 1   
   142    53   147 1   
   143    55    56 1   
   144    55   148 1   
   145    56    57 ar  
   146    56    59 ar  
   147    57    58 ar  
   148    57   149 1   
   149    58    61 ar  
   150    58   150 1   
   151    59    60 ar  
   152    59   151 1   
   153    60    61 ar  
   154    60   152 1   
   155    62   153 1   
   156    62   154 1   
@<TRIPOS>SUBSTRUCTURE
     1 ELS         1 TEMP              0 ****  ****    0 ROOT
