@<TRIPOS>MOLECULE
ELT
   20    19     1     0     0
SMALL
abcg2


@<TRIPOS>ATOM
      1 P01         -0.3290    -0.7510     0.4310 p5         1 ELT       1.366700
      2 O02         -0.4790    -1.7800    -0.6530 o          1 ELT      -0.828000
      3 N03         -1.0280     0.7010    -0.1250 n3         1 ELT      -0.814700
      4 C04         -2.1480     0.6420    -1.0360 c3         1 ELT       0.215100
      5 C05         -1.1230     1.7850     0.8270 c3         1 ELT       0.215100
      6 O06          1.2520    -0.3040     0.5670 os         1 ELT      -0.592400
      7 C07          1.9860    -0.0050    -0.6060 c3         1 ELT       0.224600
      8 C08          3.2550     0.7270    -0.2250 c3         1 ELT      -0.092100
      9 O1          -0.7360    -1.0590     1.8440 o          1 ELT      -0.828000
     10 H1          -3.1080     0.4410    -0.5410 h1         1 ELT       0.008033
     11 H2          -2.2500     1.5970    -1.5580 h1         1 ELT       0.008033
     12 H3          -1.9880    -0.1320    -1.7830 h1         1 ELT       0.008033
     13 H4          -0.2180     1.8480     1.4300 h1         1 ELT       0.008033
     14 H5          -1.2260     2.7360     0.3000 h1         1 ELT       0.008033
     15 H6          -1.9770     1.6920     1.5100 h1         1 ELT       0.008033
     16 H7           2.2360    -0.9250    -1.1460 h1         1 ELT       0.014200
     17 H8           1.3930     0.6160    -1.2860 h1         1 ELT       0.014200
     18 H9           3.0320     1.6690     0.2780 hc         1 ELT       0.019367
     19 H10          3.8810     0.1250     0.4350 hc         1 ELT       0.019367
     20 H11          3.8370     0.9540    -1.1190 hc         1 ELT       0.019367
@<TRIPOS>BOND
     1     1     2 1   
     2     1     3 1   
     3     1     6 1   
     4     1     9 1   
     5     3     4 1   
     6     3     5 1   
     7     4    10 1   
     8     4    11 1   
     9     4    12 1   
    10     5    13 1   
    11     5    14 1   
    12     5    15 1   
    13     6     7 1   
    14     7     8 1   
    15     7    16 1   
    16     7    17 1   
    17     8    18 1   
    18     8    19 1   
    19     8    20 1   
@<TRIPOS>SUBSTRUCTURE
     1 ELT         1 TEMP              0 ****  ****    0 ROOT
