@<TRIPOS>MOLECULE
ELT
   20    19     1     0     0
SMALL
No Charge or Current Charge


@<TRIPOS>ATOM
      1 P01         -0.3480    -0.7890     0.1520 p5         1 ELT       1.366700
      2 O02         -0.4900    -1.7970    -0.9370 o          1 ELT      -0.828000
      3 N03         -0.9960     0.6660    -0.3450 n3         1 ELT      -0.814700
      4 C04         -2.4030     0.6030    -0.7690 c3         1 ELT       0.215100
      5 C05         -0.7710     1.8150     0.5480 c3         1 ELT       0.215100
      6 O06          1.1750    -0.3870     0.4830 os         1 ELT      -0.592400
      7 C07          2.0480    -0.0360    -0.5950 c3         1 ELT       0.224600
      8 C08          3.1830     0.8270    -0.0180 c3         1 ELT      -0.092100
      9 O1          -1.0700    -1.1930     1.3930 o          1 ELT      -0.828000
     10 H1          -3.0570     0.3620     0.0790 h1         1 ELT       0.008033
     11 H2          -2.7250     1.5670    -1.1870 h1         1 ELT       0.008033
     12 H3          -2.5460    -0.1590    -1.5450 h1         1 ELT       0.008033
     13 H4           0.2980     1.9730     0.7350 h1         1 ELT       0.008033
     14 H5          -1.1650     2.7360     0.0990 h1         1 ELT       0.008033
     15 H6          -1.2730     1.6630     1.5130 h1         1 ELT       0.008033
     16 H7           2.4720    -0.9380    -1.0550 h1         1 ELT       0.014200
     17 H8           1.5210     0.5340    -1.3720 h1         1 ELT       0.014200
     18 H9           2.7850     1.7460     0.4280 hc         1 ELT       0.019367
     19 H10          3.7400     0.2760     0.7490 hc         1 ELT       0.019367
     20 H11          3.8840     1.1090    -0.8130 hc         1 ELT       0.019367
@<TRIPOS>BOND
     1     1     2 1   
     2     1     3 1   
     3     1     6 1   
     4     1     9 1   
     5     3     4 1   
     6     3     5 1   
     7     4    10 1   
     8     4    11 1   
     9     4    12 1   
    10     5    13 1   
    11     5    14 1   
    12     5    15 1   
    13     6     7 1   
    14     7     8 1   
    15     7    16 1   
    16     7    17 1   
    17     8    18 1   
    18     8    19 1   
    19     8    20 1   
@<TRIPOS>SUBSTRUCTURE
     1 ELT         1 TEMP              0 ****  ****    0 ROOT
