@<TRIPOS>MOLECULE
ELV
   53    55     1     0     0
SMALL
No Charge or Current Charge


@<TRIPOS>ATOM
      1 CAA          2.0490     3.0470     0.1040 c3         1 ELV       0.152900
      2 CAC         -4.3390     1.6540    -1.9320 c3         1 ELV      -0.088600
      3 OAD         -4.1830    -3.7890    -0.0780 o          1 ELV      -0.714500
      4 OAE         -2.0570    -2.9120    -1.5550 o          1 ELV      -0.553100
      5 OAF         -3.9800     2.2300     2.5330 oh         1 ELV      -0.636000
      6 OAG         -5.1810    -2.3700     1.1530 o          1 ELV      -0.714500
      7 CAJ          4.3210    -2.5060     0.9760 ca         1 ELV      -0.123000
      8 CAK          5.4870    -1.7480     1.1700 ca         1 ELV      -0.092000
      9 CAL          3.4090    -2.1520    -0.0340 ca         1 ELV      -0.074000
     10 CAM          0.2140    -1.2310    -1.4250 ca         1 ELV       0.007000
     11 CAN         -0.1850     1.2070    -0.1230 ca         1 ELV      -0.293000
     12 CAO         -3.3900    -0.3950     0.7210 cc         1 ELV       0.020000
     13 CAP         -2.9250     2.6980     1.6700 c3         1 ELV       0.146600
     14 CAQ          2.6340    -0.6720    -1.9430 c3         1 ELV       0.043200
     15 OAR          2.1400     1.7850    -0.5790 os         1 ELV      -0.342100
     16 CAS         -4.2680    -2.6680     0.3960 c          1 ELV       0.727200
     17 CAT          5.7430    -0.6350     0.3520 ca         1 ELV       0.061000
     18 CAU          4.8310    -0.2790    -0.6620 ca         1 ELV       0.187000
     19 CAV          3.6520    -1.0350    -0.8610 ca         1 ELV      -0.085300
     20 CAW          1.2750    -0.3140    -1.3420 ca         1 ELV      -0.194300
     21 CAX          1.0760     0.9080    -0.6740 ca         1 ELV       0.187100
     22 CAY         -3.2430    -1.6290     0.0930 cd         1 ELV      -0.298400
     23 CAZ         -2.1350    -1.9150    -0.8440 c          1 ELV       0.595900
     24 CBA         -1.0410    -0.9220    -0.8640 ca         1 ELV      -0.248600
     25 CBB         -1.2610     0.3020    -0.2430 ca         1 ELV       0.370000
     26 CBC         -4.3450     2.2660    -0.5050 c3         1 ELV      -0.065700
     27 CBD         -2.9780     2.0580     0.2380 c3         1 ELV       0.242500
     28 NBE         -2.5390     0.6210     0.2480 na         1 ELV      -0.647200
     29 HAA          1.2880     3.6870    -0.3600 h1         1 ELV       0.035033
     30 HAAA         1.7920     2.9000     1.1610 h1         1 ELV       0.035033
     31 HAAB         3.0100     3.5730     0.0570 h1         1 ELV       0.035033
     32 HAB         -5.6970     3.8690    -1.1470 hc         1 ELV       0.033367
     33 HABA        -4.9340     4.1780     0.4150 hc         1 ELV       0.033367
     34 HABB        -3.9900     4.3550    -1.0830 hc         1 ELV       0.033367
     35 HAC         -4.1780     0.5700    -1.9040 hc         1 ELV       0.033367
     36 HACA        -5.2990     1.8280    -2.4330 hc         1 ELV       0.033367
     37 HACB        -3.5470     2.1020    -2.5440 hc         1 ELV       0.033367
     38 HOAF        -3.8290     2.6340     3.4160 ho         1 ELV       0.439000
     39 HAJ          4.1220    -3.3680     1.6090 ha         1 ELV       0.119000
     40 HAK          6.1920    -2.0220     1.9520 ha         1 ELV       0.122000
     41 HAL          2.5080    -2.7460    -0.1720 ha         1 ELV       0.135000
     42 HAM          0.3730    -2.1950    -1.9060 ha         1 ELV       0.133000
     43 HAN         -0.3300     2.1390     0.4070 ha         1 ELV       0.107000
     44 HAO         -4.2060    -0.1240     1.3900 h4         1 ELV       0.235000
     45 HAP         -2.9820     3.7900     1.5740 h1         1 ELV       0.018200
     46 HAPA        -1.9500     2.4730     2.1200 h1         1 ELV       0.018200
     47 HAQ          2.9880     0.1580    -2.5650 hc         1 ELV       0.057700
     48 HAQA         2.5330    -1.5170    -2.6350 hc         1 ELV       0.057700
     49 HBC         -5.1220     1.7450     0.0670 hc         1 ELV       0.089700
     50 HBD         -2.2600     2.6250    -0.3690 h1         1 ELV       0.049700
     51 ClAI         7.2160     0.3020     0.6110 cl         1 ELV      -0.200000
     52 CAB         -4.7630     3.7580    -0.5830 c3         1 ELV      -0.088600
     53 FAH          5.0970     0.7940    -1.4460 f          1 ELV      -0.165000
@<TRIPOS>BOND
     1     1    15 1   
     2     1    29 1   
     3     1    30 1   
     4     1    31 1   
     5     2    26 1   
     6     2    35 1   
     7     2    36 1   
     8     2    37 1   
     9     3    16 1   
    10     4    23 2   
    11     5    13 1   
    12     5    38 1   
    13     6    16 1   
    14     7     8 ar  
    15     7     9 ar  
    16     7    39 1   
    17     8    17 ar  
    18     8    40 1   
    19     9    19 ar  
    20     9    41 1   
    21    10    20 ar  
    22    10    24 ar  
    23    10    42 1   
    24    11    21 ar  
    25    11    25 ar  
    26    11    43 1   
    27    12    22 2   
    28    12    28 1   
    29    12    44 1   
    30    13    27 1   
    31    13    45 1   
    32    13    46 1   
    33    14    19 1   
    34    14    20 1   
    35    14    47 1   
    36    14    48 1   
    37    15    21 1   
    38    16    22 1   
    39    17    18 ar  
    40    17    51 1   
    41    18    19 ar  
    42    18    53 1   
    43    20    21 ar  
    44    22    23 1   
    45    23    24 1   
    46    24    25 ar  
    47    25    28 1   
    48    26    27 1   
    49    26    49 1   
    50    26    52 1   
    51    27    28 1   
    52    27    50 1   
    53    32    52 1   
    54    33    52 1   
    55    34    52 1   
@<TRIPOS>SUBSTRUCTURE
     1 ELV         1 TEMP              0 ****  ****    0 ROOT
