@<TRIPOS>MOLECULE
ELV
   53    55     1     0     0
SMALL
abcg2


@<TRIPOS>ATOM
      1 CAA          1.9370     2.8380    -0.6490 c3         1 ELV       0.152900
      2 CAC         -4.3540     2.3150    -1.7120 c3         1 ELV      -0.088600
      3 OAD         -4.5320    -3.7950    -0.2450 o          1 ELV      -0.714500
      4 OAE         -1.9110    -3.3430    -1.1780 o          1 ELV      -0.553100
      5 OAF         -3.6590     1.3090     2.4690 oh         1 ELV      -0.636000
      6 OAG         -5.7420    -1.9530     0.0420 o          1 ELV      -0.714500
      7 CAJ          4.3360    -1.7620     1.5620 ca         1 ELV      -0.123000
      8 CAK          5.4270    -0.9060     1.5150 ca         1 ELV      -0.092000
      9 CAL          3.4470    -1.8170     0.5010 ca         1 ELV      -0.074000
     10 CAM          0.1930    -1.5400    -1.2840 ca         1 ELV       0.007000
     11 CAN         -0.2480     1.0860    -0.5650 ca         1 ELV      -0.293000
     12 CAO         -3.5600    -0.3760    -0.0680 cc         1 ELV       0.020000
     13 CAP         -2.6600     2.0380     1.8030 c3         1 ELV       0.146600
     14 CAQ          2.6220    -1.1020    -1.7670 c3         1 ELV       0.043200
     15 OAR          2.0660     1.4860    -1.0400 os         1 ELV      -0.342100
     16 CAS         -4.6730    -2.5630    -0.1840 c          1 ELV       0.727200
     17 CAT          5.6120    -0.1180     0.3930 ca         1 ELV       0.061000
     18 CAU          4.7150    -0.1860    -0.6620 ca         1 ELV       0.187000
     19 CAV          3.6170    -1.0280    -0.6330 ca         1 ELV      -0.085300
     20 CAW          1.2470    -0.6650    -1.3420 ca         1 ELV      -0.194300
     21 CAX          1.0060     0.6750    -0.9690 ca         1 ELV       0.187100
     22 CAY         -3.4360    -1.6980    -0.3700 cd         1 ELV      -0.298400
     23 CAZ         -2.1560    -2.1870    -0.8330 c          1 ELV       0.595900
     24 CBA         -1.0970    -1.1640    -0.8790 ca         1 ELV      -0.248600
     25 CBB         -1.3180     0.1740    -0.5250 ca         1 ELV       0.370000
     26 CBC         -4.2410     2.4540    -0.1960 c3         1 ELV      -0.065700
     27 CBD         -2.8820     1.9340     0.3000 c3         1 ELV       0.242500
     28 NBE         -2.5910     0.5590    -0.1450 na         1 ELV      -0.647200
     29 HAA          1.2210     3.3760    -1.2740 h1         1 ELV       0.035033
     30 HAAA         1.6370     2.9310     0.3980 h1         1 ELV       0.035033
     31 HAAB         2.9190     3.2880    -0.7730 h1         1 ELV       0.035033
     32 HAB         -5.3320     4.3160    -0.2220 hc         1 ELV       0.033367
     33 HABA        -4.4680     4.0550     1.2830 hc         1 ELV       0.033367
     34 HABB        -3.5840     4.5320    -0.1710 hc         1 ELV       0.033367
     35 HAC         -4.3270     1.2790    -2.0470 hc         1 ELV       0.033367
     36 HACA        -5.2930     2.7450    -2.0610 hc         1 ELV       0.033367
     37 HACB        -3.5410     2.8480    -2.2110 hc         1 ELV       0.033367
     38 HOAF        -3.4100     1.2230     3.3930 ho         1 ELV       0.439000
     39 HAJ          4.1840    -2.3860     2.4320 ha         1 ELV       0.119000
     40 HAK          6.1270    -0.8500     2.3370 ha         1 ELV       0.122000
     41 HAL          2.5950    -2.4850     0.5480 ha         1 ELV       0.135000
     42 HAM          0.3560    -2.5750    -1.5590 ha         1 ELV       0.133000
     43 HAN         -0.3950     2.1160    -0.2860 ha         1 ELV       0.107000
     44 HAO         -4.5270    -0.0240     0.2520 h4         1 ELV       0.235000
     45 HAP         -2.6610     3.0960     2.0890 h1         1 ELV       0.018200
     46 HAPA        -1.6570     1.6550     2.0330 h1         1 ELV       0.018200
     47 HAQ          2.9620    -0.5140    -2.6200 hc         1 ELV       0.057700
     48 HAQA         2.5650    -2.1350    -2.1150 hc         1 ELV       0.057700
     49 HBC         -5.0600     1.9060     0.2720 hc         1 ELV       0.089700
     50 HBD         -2.1490     2.5860    -0.1730 h1         1 ELV       0.049700
     51 CLAI         6.9550     0.9620     0.2850 cl         1 ELV      -0.200000
     52 CAB         -4.4090     3.9200     0.2030 c3         1 ELV      -0.088600
     53 FAH          4.9410     0.5820    -1.7310 f          1 ELV      -0.165000
@<TRIPOS>BOND
     1     1    15 1   
     2     1    29 1   
     3     1    30 1   
     4     1    31 1   
     5     2    26 1   
     6     2    35 1   
     7     2    36 1   
     8     2    37 1   
     9     3    16 1   
    10     4    23 2   
    11     5    13 1   
    12     5    38 1   
    13     6    16 1   
    14     7     8 ar  
    15     7     9 ar  
    16     7    39 1   
    17     8    17 ar  
    18     8    40 1   
    19     9    19 ar  
    20     9    41 1   
    21    10    20 ar  
    22    10    24 ar  
    23    10    42 1   
    24    11    21 ar  
    25    11    25 ar  
    26    11    43 1   
    27    12    22 2   
    28    12    28 1   
    29    12    44 1   
    30    13    27 1   
    31    13    45 1   
    32    13    46 1   
    33    14    19 1   
    34    14    20 1   
    35    14    47 1   
    36    14    48 1   
    37    15    21 1   
    38    16    22 1   
    39    17    18 ar  
    40    17    51 1   
    41    18    19 ar  
    42    18    53 1   
    43    20    21 ar  
    44    22    23 1   
    45    23    24 1   
    46    24    25 ar  
    47    25    28 1   
    48    26    27 1   
    49    26    49 1   
    50    26    52 1   
    51    27    28 1   
    52    27    50 1   
    53    32    52 1   
    54    33    52 1   
    55    34    52 1   
@<TRIPOS>SUBSTRUCTURE
     1 ELV         1 TEMP              0 ****  ****    0 ROOT
