@<TRIPOS>MOLECULE
ELW
   43    46     1     0     0
SMALL
No Charge or Current Charge


@<TRIPOS>ATOM
      1 C4           6.0280     1.2900     0.8060 c2         1 ELW      -0.346200
      2 C14          0.1740     0.6310    -0.2500 ca         1 ELW      -0.132000
      3 C5           4.9850     0.2130     1.0440 c5         1 ELW       0.226300
      4 C11         -0.0270     2.9300    -1.7230 ca         1 ELW       0.366900
      5 C7           3.6630     0.6330     0.5400 c1         1 ELW      -0.116100
      6 C8           2.5910     0.9830     0.0870 cg         1 ELW      -0.100000
      7 C9           1.3310     1.3940    -0.4580 ca         1 ELW       0.085000
      8 C10          1.2250     2.5680    -1.2120 ca         1 ELW      -0.163000
      9 C13         -1.0600     1.0470    -0.7920 ca         1 ELW       0.474500
     10 N2           6.7810    -0.5570    -0.2700 n          1 ELW      -0.335000
     11 C3           7.0070     0.7810     0.0580 c2         1 ELW      -0.031400
     12 C1           7.6700    -1.4040    -1.0840 c3         1 ELW       0.103300
     13 O6           4.8750    -0.0330     2.4470 oh         1 ELW      -0.610000
     14 N12         -1.1430     2.1950    -1.5210 nb         1 ELW      -0.706000
     15 N15         -2.1690     0.2230    -0.5300 na         1 ELW       0.078100
     16 N16         -2.1680    -1.1350    -0.8850 nc         1 ELW      -0.511100
     17 C17         -3.3840    -1.5780    -0.4870 cd         1 ELW       0.315900
     18 C18         -3.8610    -3.0040    -0.6590 c          1 ELW       0.557800
     19 N19         -2.9830    -3.8530    -1.2540 nt         1 ELW      -0.591000
     20 O20         -4.9530    -3.4330    -0.3080 o          1 ELW      -0.599100
     21 C21         -4.1520    -0.4970     0.1230 ca         1 ELW      -0.169900
     22 C22         -3.3530     0.6050     0.0710 ca         1 ELW      -0.039200
     23 C23         -3.7600     1.8490     0.5770 ca         1 ELW      -0.071000
     24 C24         -5.0480     1.9320     1.1500 ca         1 ELW      -0.124000
     25 C25         -5.8790     0.7890     1.2030 ca         1 ELW       0.142000
     26 F26         -7.1090     0.8830     1.7540 f          1 ELW      -0.178000
     27 C27         -5.4390    -0.4480     0.6870 ca         1 ELW      -0.073000
     28 C28          5.5740    -1.0400     0.2690 c          1 ELW       0.573000
     29 O29          5.1340    -2.1790     0.1330 o          1 ELW      -0.484000
     30 H1           5.9910     2.3180     1.1720 ha         1 ELW       0.215000
     31 H3          -0.1430     3.8380    -2.3130 h4         1 ELW       0.028100
     32 H4           2.0920     3.1950    -1.4030 ha         1 ELW       0.136000
     33 H5           7.9130     1.2770    -0.3050 h4         1 ELW       0.214000
     34 H6           8.5520    -0.8320    -1.3980 h1         1 ELW       0.049367
     35 H7           7.9960    -2.2710    -0.4960 h1         1 ELW       0.049367
     36 H8           7.1340    -1.7540    -1.9750 h1         1 ELW       0.049367
     37 H9           4.5270     0.7950     2.8380 ho         1 ELW       0.457000
     38 H10         -2.0790    -3.5070    -1.5470 hn         1 ELW       0.326000
     39 H11         -3.2400    -4.8180    -1.3980 hn         1 ELW       0.326000
     40 H12         -3.1100     2.7210     0.5300 ha         1 ELW       0.151000
     41 H13         -5.4040     2.8770     1.5530 ha         1 ELW       0.133000
     42 H14         -6.0820    -1.3240     0.7320 ha         1 ELW       0.162000
     43 H2           0.2230    -0.2850     0.3320 ha         1 ELW       0.160000
@<TRIPOS>BOND
     1     1     3 1   
     2     1    11 2   
     3     1    30 1   
     4     2     7 ar  
     5     2     9 ar  
     6     2    43 1   
     7     3     5 1   
     8     3    13 1   
     9     3    28 1   
    10     4     8 ar  
    11     4    14 ar  
    12     4    31 1   
    13     5     6 3   
    14     6     7 1   
    15     7     8 ar  
    16     8    32 1   
    17     9    14 ar  
    18     9    15 1   
    19    10    11 1   
    20    10    12 1   
    21    10    28 1   
    22    11    33 1   
    23    12    34 1   
    24    12    35 1   
    25    12    36 1   
    26    13    37 1   
    27    15    16 1   
    28    15    22 1   
    29    16    17 2   
    30    17    18 1   
    31    17    21 1   
    32    18    19 1   
    33    18    20 2   
    34    19    38 1   
    35    19    39 1   
    36    21    22 ar  
    37    21    27 ar  
    38    22    23 ar  
    39    23    24 ar  
    40    23    40 1   
    41    24    25 ar  
    42    24    41 1   
    43    25    26 1   
    44    25    27 ar  
    45    27    42 1   
    46    28    29 2   
@<TRIPOS>SUBSTRUCTURE
     1 ELW         1 TEMP              0 ****  ****    0 ROOT
