@<TRIPOS>MOLECULE
ELW
   43    46     1     0     0
SMALL
bcc


@<TRIPOS>ATOM
      1 C4           6.1780     1.0210     0.6580 c2         1 ELW      -0.296200
      2 C14          0.2810     0.5580     0.2340 ca         1 ELW      -0.215300
      3 C5           5.1520    -0.0550     0.8940 c5         1 ELW       0.203100
      4 C11         -0.0940     3.2260    -0.1540 ca         1 ELW       0.432200
      5 C7           3.8000     0.4520     0.6530 c1         1 ELW      -0.116100
      6 C8           2.6890     0.8790     0.4700 cg         1 ELW      -0.100000
      7 C9           1.3840     1.4040     0.2510 ca         1 ELW       0.085000
      8 C10          1.1940     2.7740     0.0510 ca         1 ELW      -0.246300
      9 C13         -0.9670     1.1380     0.0190 ca         1 ELW       0.539800
     10 N2           6.5510    -0.5820    -0.9020 n          1 ELW      -0.402000
     11 C3           6.9310     0.6570    -0.3760 c2         1 ELW       0.018600
     12 C1           7.1890    -1.2650    -2.0030 c3         1 ELW       0.103300
     13 O6           5.2530    -0.7350     2.1150 oh         1 ELW      -0.547800
     14 N12         -1.1550     2.4270    -0.1690 nb         1 ELW      -0.706000
     15 N15         -2.1190     0.3400    -0.0040 na         1 ELW       0.078100
     16 N16         -2.0050    -0.9720     0.1840 nc         1 ELW      -0.511100
     17 C17         -3.1990    -1.4930     0.1230 cd         1 ELW       0.315900
     18 C18         -3.4250    -2.9480     0.2930 c          1 ELW       0.624800
     19 N19         -2.3270    -3.6820     0.5000 nt         1 ELW      -0.658000
     20 O20         -4.5600    -3.4020     0.2390 o          1 ELW      -0.599100
     21 C21         -4.1750    -0.4840    -0.1190 ca         1 ELW      -0.169900
     22 C22         -3.4340     0.7060    -0.1990 ca         1 ELW      -0.039200
     23 C23         -4.0540     1.9380    -0.4350 ca         1 ELW      -0.089000
     24 C24         -5.4220     1.9350    -0.5870 ca         1 ELW      -0.142000
     25 C25         -6.1460     0.7410    -0.5040 ca         1 ELW       0.106900
     26 F26         -7.4780     0.8100    -0.6610 f          1 ELW      -0.142900
     27 C27         -5.5660    -0.4770    -0.2740 ca         1 ELW      -0.091000
     28 C28          5.5080    -1.0900    -0.2090 c          1 ELW       0.715500
     29 O29          4.9580    -2.1500    -0.3930 o          1 ELW      -0.559500
     30 H1           6.2520     1.9350     1.2250 ha         1 ELW       0.165000
     31 H3          -0.2850     4.2800    -0.3110 h4         1 ELW       0.028100
     32 H4           2.0270     3.4620     0.0570 ha         1 ELW       0.154000
     33 H5           7.7520     1.1900    -0.8310 h4         1 ELW       0.164000
     34 H6           8.0610    -0.6970    -2.3130 h1         1 ELW       0.049367
     35 H7           7.5150    -2.2600    -1.7040 h1         1 ELW       0.049367
     36 H8           6.5130    -1.3550    -2.8530 h1         1 ELW       0.049367
     37 H9           5.1490    -0.0970     2.8310 ho         1 ELW       0.418000
     38 H10         -1.4110    -3.2670     0.5300 hn         1 ELW       0.326000
     39 H11         -2.3990    -4.6790     0.6160 hn         1 ELW       0.326000
     40 H12         -3.4930     2.8550    -0.4980 ha         1 ELW       0.169000
     41 H13         -5.9470     2.8620    -0.7750 ha         1 ELW       0.151000
     42 H14         -6.1530    -1.3820    -0.2150 ha         1 ELW       0.180000
     43 H2           0.3960    -0.5040     0.3830 ha         1 ELW       0.178000
@<TRIPOS>BOND
     1     1     3 1   
     2     1    11 2   
     3     1    30 1   
     4     2     7 ar  
     5     2     9 ar  
     6     2    43 1   
     7     3     5 1   
     8     3    13 1   
     9     3    28 1   
    10     4     8 ar  
    11     4    14 ar  
    12     4    31 1   
    13     5     6 3   
    14     6     7 1   
    15     7     8 ar  
    16     8    32 1   
    17     9    14 ar  
    18     9    15 1   
    19    10    11 1   
    20    10    12 1   
    21    10    28 1   
    22    11    33 1   
    23    12    34 1   
    24    12    35 1   
    25    12    36 1   
    26    13    37 1   
    27    15    16 1   
    28    15    22 1   
    29    16    17 2   
    30    17    18 1   
    31    17    21 1   
    32    18    19 1   
    33    18    20 2   
    34    19    38 1   
    35    19    39 1   
    36    21    22 ar  
    37    21    27 ar  
    38    22    23 ar  
    39    23    24 ar  
    40    23    40 1   
    41    24    25 ar  
    42    24    41 1   
    43    25    26 1   
    44    25    27 ar  
    45    27    42 1   
    46    28    29 2   
@<TRIPOS>SUBSTRUCTURE
     1 ELW         1 TEMP              0 ****  ****    0 ROOT
