@<TRIPOS>MOLECULE
ELX
   55    54     1     0     0
SMALL
No Charge or Current Charge


@<TRIPOS>ATOM
      1 C20          6.0970     2.3880   -10.7470 c3         1 ELX      -0.055900
      2 C19          4.3870     3.7200    -9.4550 c3         1 ELX      -0.055900
      3 C18          4.7300     2.3800   -10.0790 c2         1 ELX      -0.112400
      4 C17          3.8920     1.3270   -10.0300 c2         1 ELX      -0.224200
      5 C16          4.1250    -0.0660   -10.5870 c3         1 ELX      -0.035200
      6 C14          2.9970    -2.6260   -12.2620 c3         1 ELX      -0.054900
      7 C13          3.9930    -1.5470   -12.6700 c2         1 ELX      -0.112400
      8 C15          3.6830    -0.1870   -12.0610 c3         1 ELX      -0.038200
      9 C12          5.0440    -1.7350   -13.4930 c2         1 ELX      -0.222200
     10 C11          5.4520    -3.0170   -14.1960 c3         1 ELX      -0.036200
     11 C9           6.3570    -3.9030   -13.3130 c3         1 ELX      -0.038200
     12 C8           6.7050    -5.2370   -13.9590 c2         1 ELX      -0.110400
     13 C10          7.7580    -5.1150   -15.0550 c3         1 ELX      -0.055900
     14 C7           6.1380    -6.3910   -13.5580 c2         1 ELX      -0.223200
     15 C6           6.3770    -7.7830   -14.1160 c3         1 ELX      -0.035200
     16 C5           7.5450    -8.5030   -13.4070 c3         1 ELX      -0.039200
     17 C3           7.8640    -9.8650   -14.0070 c2         1 ELX      -0.098400
     18 C4           6.8750   -10.9500   -13.6010 c3         1 ELX      -0.057900
     19 C2           8.9350   -10.0690   -14.7970 c2         1 ELX      -0.224200
     20 C1           9.3560   -11.3760   -15.4300 c3         1 ELX       0.200800
     21 O1          10.5320   -11.1750   -16.2150 oh         1 ELX      -0.658000
     22 H1           6.8910     2.5710   -10.0130 hc         1 ELX       0.038367
     23 H2           6.3310     1.4460   -11.2540 hc         1 ELX       0.038367
     24 H3           6.1570     3.1800   -11.5040 hc         1 ELX       0.038367
     25 H4           5.1220     3.9990    -8.6900 hc         1 ELX       0.038367
     26 H5           4.3710     4.5160   -10.2100 hc         1 ELX       0.038367
     27 H6           3.4020     3.7060    -8.9730 hc         1 ELX       0.038367
     28 H7           2.9280     1.4300    -9.5270 ha         1 ELX       0.164000
     29 H8           3.5790    -0.7970    -9.9790 hc         1 ELX       0.045200
     30 H9           5.1830    -0.3450   -10.5070 hc         1 ELX       0.045200
     31 H10          2.9740    -2.7560   -11.1740 hc         1 ELX       0.039033
     32 H11          1.9820    -2.3650   -12.5860 hc         1 ELX       0.039033
     33 H12          3.2300    -3.6060   -12.6900 hc         1 ELX       0.039033
     34 H13          4.1930     0.5990   -12.6320 hc         1 ELX       0.044700
     35 H14          2.6110     0.0350   -12.1420 hc         1 ELX       0.044700
     36 H15          5.7000    -0.8940   -13.7230 ha         1 ELX       0.164000
     37 H16          5.9770    -2.7690   -15.1270 hc         1 ELX       0.046200
     38 H17          4.5700    -3.5940   -14.4970 hc         1 ELX       0.046200
     39 H18          5.8380    -4.0750   -12.3630 hc         1 ELX       0.045200
     40 H19          7.2700    -3.3510   -13.0570 hc         1 ELX       0.045200
     41 H20          8.6480    -4.5920   -14.6870 hc         1 ELX       0.040033
     42 H21          8.0960    -6.0860   -15.4300 hc         1 ELX       0.040033
     43 H22          7.3740    -4.5530   -15.9140 hc         1 ELX       0.040033
     44 H23          5.4000    -6.3750   -12.7550 ha         1 ELX       0.164000
     45 H24          6.5820    -7.7420   -15.1920 hc         1 ELX       0.047700
     46 H25          5.4620    -8.3780   -14.0110 hc         1 ELX       0.047700
     47 H26          7.3210    -8.5970   -12.3380 hc         1 ELX       0.045700
     48 H27          8.4280    -7.8550   -13.4700 hc         1 ELX       0.045700
     49 H28          6.8200   -11.0430   -12.5100 hc         1 ELX       0.040033
     50 H29          5.8660   -10.7280   -13.9670 hc         1 ELX       0.040033
     51 H30          7.1470   -11.9360   -13.9930 hc         1 ELX       0.040033
     52 H31          9.5970    -9.2350   -15.0320 ha         1 ELX       0.177000
     53 H32          8.5400   -11.7570   -16.0610 h1         1 ELX       0.021700
     54 H33          9.5470   -12.1190   -14.6440 h1         1 ELX       0.021700
     55 H34         10.7640   -12.0480   -16.6030 ho         1 ELX       0.439000
@<TRIPOS>BOND
     1     1     3 1   
     2     1    22 1   
     3     1    23 1   
     4     1    24 1   
     5     2     3 1   
     6     2    25 1   
     7     2    26 1   
     8     2    27 1   
     9     3     4 2   
    10     4     5 1   
    11     4    28 1   
    12     5     8 1   
    13     5    29 1   
    14     5    30 1   
    15     6     7 1   
    16     6    31 1   
    17     6    32 1   
    18     6    33 1   
    19     7     8 1   
    20     7     9 2   
    21     8    34 1   
    22     8    35 1   
    23     9    10 1   
    24     9    36 1   
    25    10    11 1   
    26    10    37 1   
    27    10    38 1   
    28    11    12 1   
    29    11    39 1   
    30    11    40 1   
    31    12    13 1   
    32    12    14 2   
    33    13    41 1   
    34    13    42 1   
    35    13    43 1   
    36    14    15 1   
    37    14    44 1   
    38    15    16 1   
    39    15    45 1   
    40    15    46 1   
    41    16    17 1   
    42    16    47 1   
    43    16    48 1   
    44    17    18 1   
    45    17    19 2   
    46    18    49 1   
    47    18    50 1   
    48    18    51 1   
    49    19    20 1   
    50    19    52 1   
    51    20    21 1   
    52    20    53 1   
    53    20    54 1   
    54    21    55 1   
@<TRIPOS>SUBSTRUCTURE
     1 ELX         1 TEMP              0 ****  ****    0 ROOT
