@<TRIPOS>MOLECULE
ELX
   55    54     1     0     0
SMALL
abcg2


@<TRIPOS>ATOM
      1 C20          6.2700     1.8070    -9.6310 c3         1 ELX      -0.055900
      2 C19          4.4130     3.4380    -9.1300 c3         1 ELX      -0.055900
      3 C18          4.8020     2.1080    -9.7090 c2         1 ELX      -0.112400
      4 C17          3.8830     1.2960   -10.2370 c2         1 ELX      -0.224200
      5 C16          4.0860    -0.0470   -10.8670 c3         1 ELX      -0.035200
      6 C14          2.6580    -2.2220   -12.7760 c3         1 ELX      -0.054900
      7 C13          3.8730    -1.3750   -13.0170 c2         1 ELX      -0.112400
      8 C15          3.8330    -0.0090   -12.3820 c3         1 ELX      -0.038200
      9 C12          4.9390    -1.7580   -13.7250 c2         1 ELX      -0.222200
     10 C11          5.1870    -3.0760   -14.3880 c3         1 ELX      -0.036200
     11 C9           6.3510    -3.8290   -13.7240 c3         1 ELX      -0.038200
     12 C8           6.6280    -5.1720   -14.3470 c2         1 ELX      -0.110400
     13 C10          7.0940    -5.1390   -15.7730 c3         1 ELX      -0.055900
     14 C7           6.4530    -6.2890   -13.6350 c2         1 ELX      -0.223200
     15 C6           6.6760    -7.7050   -14.0670 c3         1 ELX      -0.035200
     16 C5           7.9690    -8.2820   -13.4690 c3         1 ELX      -0.039200
     17 C3           8.1620    -9.7450   -13.7720 c2         1 ELX      -0.098400
     18 C4           7.2470   -10.6730   -13.0270 c3         1 ELX      -0.057900
     19 C2           9.0970   -10.1300   -14.6450 c2         1 ELX      -0.224200
     20 C1           9.4480   -11.5210   -15.0600 c3         1 ELX       0.200800
     21 O1           9.3470   -11.6050   -16.4710 oh         1 ELX      -0.658000
     22 H1           6.6100     1.8240    -8.5920 hc         1 ELX       0.038367
     23 H2           6.5410     0.8420   -10.0550 hc         1 ELX       0.038367
     24 H3           6.8450     2.5740   -10.1550 hc         1 ELX       0.038367
     25 H4           4.6850     3.5010    -8.0730 hc         1 ELX       0.038367
     26 H5           4.9380     4.2550    -9.6330 hc         1 ELX       0.038367
     27 H6           3.3420     3.6240    -9.2120 hc         1 ELX       0.038367
     28 H7           2.8520     1.6450   -10.2390 ha         1 ELX       0.164000
     29 H8           3.3980    -0.7600   -10.4020 hc         1 ELX       0.045200
     30 H9           5.0910    -0.4320   -10.6870 hc         1 ELX       0.045200
     31 H10          2.4180    -2.2700   -11.7110 hc         1 ELX       0.039033
     32 H11          1.7840    -1.7840   -13.2660 hc         1 ELX       0.039033
     33 H12          2.7600    -3.2440   -13.1330 hc         1 ELX       0.039033
     34 H13          4.5780     0.6450   -12.8420 hc         1 ELX       0.044700
     35 H14          2.8560     0.4510   -12.5670 hc         1 ELX       0.044700
     36 H15          5.7530    -1.0410   -13.8260 ha         1 ELX       0.164000
     37 H16          5.4240    -2.9020   -15.4420 hc         1 ELX       0.046200
     38 H17          4.2990    -3.7090   -14.3730 hc         1 ELX       0.046200
     39 H18          6.1280    -3.9550   -12.6610 hc         1 ELX       0.045200
     40 H19          7.2500    -3.2050   -13.7830 hc         1 ELX       0.045200
     41 H20          7.9460    -4.4630   -15.8780 hc         1 ELX       0.040033
     42 H21          7.3950    -6.1140   -16.1510 hc         1 ELX       0.040033
     43 H22          6.3150    -4.7560   -16.4360 hc         1 ELX       0.040033
     44 H23          6.1340    -6.1750   -12.6010 ha         1 ELX       0.164000
     45 H24          6.7130    -7.8000   -15.1530 hc         1 ELX       0.047700
     46 H25          5.8220    -8.3040   -13.7360 hc         1 ELX       0.047700
     47 H26          7.9520    -8.1360   -12.3830 hc         1 ELX       0.045700
     48 H27          8.8160    -7.7050   -13.8500 hc         1 ELX       0.045700
     49 H28          7.3860   -10.5550   -11.9500 hc         1 ELX       0.040033
     50 H29          6.2000   -10.4400   -13.2310 hc         1 ELX       0.040033
     51 H30          7.4000   -11.7230   -13.2670 hc         1 ELX       0.040033
     52 H31          9.7050    -9.3560   -15.1080 ha         1 ELX       0.177000
     53 H32          8.8060   -12.2600   -14.5700 h1         1 ELX       0.021700
     54 H33         10.4750   -11.7360   -14.7330 h1         1 ELX       0.021700
     55 H34          9.7090   -12.4530   -16.7430 ho         1 ELX       0.439000
@<TRIPOS>BOND
     1     1     3 1   
     2     1    22 1   
     3     1    23 1   
     4     1    24 1   
     5     2     3 1   
     6     2    25 1   
     7     2    26 1   
     8     2    27 1   
     9     3     4 2   
    10     4     5 1   
    11     4    28 1   
    12     5     8 1   
    13     5    29 1   
    14     5    30 1   
    15     6     7 1   
    16     6    31 1   
    17     6    32 1   
    18     6    33 1   
    19     7     8 1   
    20     7     9 2   
    21     8    34 1   
    22     8    35 1   
    23     9    10 1   
    24     9    36 1   
    25    10    11 1   
    26    10    37 1   
    27    10    38 1   
    28    11    12 1   
    29    11    39 1   
    30    11    40 1   
    31    12    13 1   
    32    12    14 2   
    33    13    41 1   
    34    13    42 1   
    35    13    43 1   
    36    14    15 1   
    37    14    44 1   
    38    15    16 1   
    39    15    45 1   
    40    15    46 1   
    41    16    17 1   
    42    16    47 1   
    43    16    48 1   
    44    17    18 1   
    45    17    19 2   
    46    18    49 1   
    47    18    50 1   
    48    18    51 1   
    49    19    20 1   
    50    19    52 1   
    51    20    21 1   
    52    20    53 1   
    53    20    54 1   
    54    21    55 1   
@<TRIPOS>SUBSTRUCTURE
     1 ELX         1 TEMP              0 ****  ****    0 ROOT
