@<TRIPOS>MOLECULE
ELY
   35    34     1     0     0
SMALL
bcc


@<TRIPOS>ATOM
      1 C            7.1350    47.6920    20.7070 c          1 ELY       0.928600
      2 N            8.0260    49.0760    22.5610 n8         1 ELY      -0.893800
      3 O            6.3110    46.8380    20.3260 o          1 ELY      -0.838300
      4 CA           7.3120    47.8470    22.2410 c3         1 ELY       0.020500
      5 CB           5.9700    47.8040    22.9740 c3         1 ELY      -0.045400
      6 CD           6.8660    46.8720    25.1910 c3         1 ELY      -0.078400
      7 CE           6.9100    47.0880    26.6990 c3         1 ELY       0.169800
      8 CG           6.0700    47.9680    24.4890 c3         1 ELY      -0.074400
      9 NZ           7.5840    46.0240    27.4260 n3         1 ELY      -0.727600
     10 CH1          9.0240    46.0450    27.2220 c3         1 ELY       0.172800
     11 CH2          7.1870    45.9700    28.8240 c3         1 ELY       0.172800
     12 CT1          9.7500    44.8730    27.8620 c3         1 ELY      -0.108600
     13 CT2          7.6280    47.1340    29.7120 c3         1 ELY      -0.108600
     14 OXT          7.8580    48.4030    19.9780 o          1 ELY      -0.838300
     15 H            8.5350    48.9660    23.4280 hn         1 ELY       0.324300
     16 H2           8.7120    49.2330    21.8350 hn         1 ELY       0.324300
     17 HA           7.8840    46.9540    22.5480 h1         1 ELY      -0.005300
     18 HB2          5.3290    48.6000    22.5790 hc         1 ELY       0.045700
     19 HB3          5.4730    46.8600    22.7440 hc         1 ELY       0.045700
     20 HD2          6.4190    45.8950    24.9820 hc         1 ELY       0.045700
     21 HD3          7.8800    46.8400    24.7850 hc         1 ELY       0.045700
     22 HE2          7.3520    48.0780    26.9020 h1         1 ELY       0.022200
     23 HE3          5.8790    47.1390    27.0630 h1         1 ELY       0.022200
     24 HG2          6.5080    48.9430    24.7260 hc         1 ELY       0.021200
     25 HG3          5.0570    47.9900    24.9040 hc         1 ELY       0.021200
     26 HH1          9.2110    46.0090    26.1470 h1         1 ELY       0.036950
     27 HH1A         9.4790    46.9870    27.5700 h1         1 ELY       0.036950
     28 HH2          6.0970    45.8980    28.8510 h1         1 ELY       0.036950
     29 HH2A         7.5520    45.0360    29.2580 h1         1 ELY       0.036950
     30 HT1         10.7890    44.8580    27.5290 hc         1 ELY       0.030700
     31 HT1A         9.7610    44.9270    28.9510 hc         1 ELY       0.030700
     32 HT1B         9.2930    43.9250    27.5740 hc         1 ELY       0.030700
     33 HT2          7.2410    46.9970    30.7230 hc         1 ELY       0.030700
     34 HT2A         8.7150    47.2030    29.7870 hc         1 ELY       0.030700
     35 HT2B         7.2580    48.0920    29.3460 hc         1 ELY       0.030700
@<TRIPOS>BOND
     1     1     3 1   
     2     1     4 1   
     3     1    14 1   
     4     2     4 1   
     5     2    15 1   
     6     2    16 1   
     7     4     5 1   
     8     4    17 1   
     9     5     8 1   
    10     5    18 1   
    11     5    19 1   
    12     6     7 1   
    13     6     8 1   
    14     6    20 1   
    15     6    21 1   
    16     7     9 1   
    17     7    22 1   
    18     7    23 1   
    19     8    24 1   
    20     8    25 1   
    21     9    10 1   
    22     9    11 1   
    23    10    12 1   
    24    10    26 1   
    25    10    27 1   
    26    11    13 1   
    27    11    28 1   
    28    11    29 1   
    29    12    30 1   
    30    12    31 1   
    31    12    32 1   
    32    13    33 1   
    33    13    34 1   
    34    13    35 1   
@<TRIPOS>SUBSTRUCTURE
     1 ELY         1 TEMP              0 ****  ****    0 ROOT
