@<TRIPOS>MOLECULE
ELY
   35    34     1     0     0
SMALL
No Charge or Current Charge


@<TRIPOS>ATOM
      1 C            7.1950    47.5300    20.6300 c          1 ELY       0.928600
      2 N            7.7790    49.4290    22.3800 n8         1 ELY      -0.893800
      3 O            6.1330    47.6370    20.0200 o          1 ELY      -0.838300
      4 CA           7.2900    48.0180    22.1490 c3         1 ELY       0.020500
      5 CB           5.9580    47.7730    22.9190 c3         1 ELY      -0.045400
      6 CD           6.9290    46.9110    25.1820 c3         1 ELY      -0.078400
      7 CE           6.8860    47.0530    26.7230 c3         1 ELY       0.169800
      8 CG           6.0210    47.9370    24.4620 c3         1 ELY      -0.074400
      9 NZ           7.5900    45.9820    27.4790 n3         1 ELY      -0.727600
     10 CH1          9.0590    45.9340    27.2250 c3         1 ELY       0.172800
     11 CH2          7.2090    45.9630    28.9200 c3         1 ELY       0.172800
     12 CT1          9.7910    44.7350    27.8630 c3         1 ELY      -0.108600
     13 CT2          7.6860    47.1750    29.7510 c3         1 ELY      -0.108600
     14 OXT          8.2000    47.0570    20.1060 o          1 ELY      -0.838300
     15 H            7.8740    49.5890    23.3870 hn         1 ELY       0.324300
     16 H2           8.7320    49.5190    22.0110 hn         1 ELY       0.324300
     17 HA           8.0470    47.3710    22.6120 h1         1 ELY      -0.005300
     18 HB2          5.1910    48.4530    22.5280 hc         1 ELY       0.045700
     19 HB3          5.6060    46.7580    22.6980 hc         1 ELY       0.045700
     20 HD2          6.6150    45.8960    24.9090 hc         1 ELY       0.045700
     21 HD3          7.9590    47.0400    24.8340 hc         1 ELY       0.045700
     22 HE2          7.2970    48.0360    26.9910 h1         1 ELY       0.022200
     23 HE3          5.8280    47.0590    27.0190 h1         1 ELY       0.022200
     24 HG2          6.3460    48.9530    24.7170 hc         1 ELY       0.021200
     25 HG3          5.0020    47.8340    24.8550 hc         1 ELY       0.021200
     26 HH1          9.2460    45.8670    26.1460 h1         1 ELY       0.036950
     27 HH1A         9.5370    46.8610    27.5680 h1         1 ELY       0.036950
     28 HH2          6.1150    45.9110    29.0020 h1         1 ELY       0.036950
     29 HH2A         7.5860    45.0490    29.3970 h1         1 ELY       0.036950
     30 HT1         10.8300    44.7030    27.5160 hc         1 ELY       0.030700
     31 HT1A         9.8070    44.8120    28.9560 hc         1 ELY       0.030700
     32 HT1B         9.3080    43.7920    27.5820 hc         1 ELY       0.030700
     33 HT2          7.3420    47.0750    30.7870 hc         1 ELY       0.030700
     34 HT2A         8.7800    47.2400    29.7670 hc         1 ELY       0.030700
     35 HT2B         7.2840    48.1130    29.3530 hc         1 ELY       0.030700
@<TRIPOS>BOND
     1     1     3 1   
     2     1     4 1   
     3     1    14 1   
     4     2     4 1   
     5     2    15 1   
     6     2    16 1   
     7     4     5 1   
     8     4    17 1   
     9     5     8 1   
    10     5    18 1   
    11     5    19 1   
    12     6     7 1   
    13     6     8 1   
    14     6    20 1   
    15     6    21 1   
    16     7     9 1   
    17     7    22 1   
    18     7    23 1   
    19     8    24 1   
    20     8    25 1   
    21     9    10 1   
    22     9    11 1   
    23    10    12 1   
    24    10    26 1   
    25    10    27 1   
    26    11    13 1   
    27    11    28 1   
    28    11    29 1   
    29    12    30 1   
    30    12    31 1   
    31    12    32 1   
    32    13    33 1   
    33    13    34 1   
    34    13    35 1   
@<TRIPOS>SUBSTRUCTURE
     1 ELY         1 TEMP              0 ****  ****    0 ROOT
