@<TRIPOS>MOLECULE
ELZ
   63    67     1     0     0
SMALL
bcc


@<TRIPOS>ATOM
      1 C4          -6.8660     2.2350    -0.6340 c5         1 ELZ      -0.081400
      2 C14          1.4740    -2.8950     0.6880 c3         1 ELZ       0.133400
      3 C5          -6.6180     0.8490    -1.2270 c5         1 ELZ       0.171900
      4 C11         -1.9050    -2.5640     1.1750 ca         1 ELZ      -0.146000
      5 C7          -5.3440     0.2880    -0.7640 c1         1 ELZ      -0.153100
      6 C8          -4.3070    -0.1900    -0.3770 cg         1 ELZ      -0.084000
      7 C9          -3.0860    -0.7660     0.0760 ca         1 ELZ       0.011000
      8 C10         -3.0880    -2.0000     0.7330 ca         1 ELZ      -0.078000
      9 C12         -0.7010    -1.9040     0.9690 ca         1 ELZ       0.134100
     10 N2          -8.1420     0.6610     0.5210 n          1 ELZ      -0.471800
     11 C3          -7.4570     1.9210     0.7370 c5         1 ELZ       0.097000
     12 C1          -9.0780     0.1450     1.4850 c3         1 ELZ       0.094300
     13 O6          -6.7110     0.8630    -2.6200 oh         1 ELZ      -0.563800
     14 O13          0.4320    -2.4010     1.5220 os         1 ELZ      -0.338900
     15 C15          1.6930    -2.0790    -0.5720 c3         1 ELZ      -0.005700
     16 N16          1.7030    -0.6560    -0.2930 na         1 ELZ      -0.146900
     17 C17          0.5870     0.0150     0.0860 cc         1 ELZ       0.480000
     18 N18          0.8190     1.2940     0.2190 nd         1 ELZ      -0.665000
     19 C19          2.1390     1.4630    -0.0650 cd         1 ELZ       0.265800
     20 C20          2.7640     2.8040    -0.0620 c          1 ELZ       0.610600
     21 N21          1.9340     3.7940     0.2860 nt         1 ELZ      -0.655000
     22 O22          3.9410     2.9690    -0.3600 o          1 ELZ      -0.627100
     23 C23          2.7160     0.2530    -0.3840 cc         1 ELZ      -0.201200
     24 C24          4.0750    -0.1340    -0.8550 c          1 ELZ       0.712700
     25 O25          4.2130    -0.7440    -1.9090 o          1 ELZ      -0.611100
     26 N26          5.0750     0.2020    -0.0420 ns         1 ELZ      -0.532900
     27 C27          6.4730     0.0030    -0.3680 c6         1 ELZ       0.115700
     28 C28          7.3170     1.1170     0.2390 c6         1 ELZ      -0.129900
     29 C29          8.7900     0.8560    -0.0430 c6         1 ELZ       0.133400
     30 O30          9.2050    -0.4050     0.4320 os         1 ELZ      -0.403600
     31 C31          8.4820    -1.4600    -0.1630 c6         1 ELZ       0.133400
     32 C32          6.9900    -1.3510     0.1110 c6         1 ELZ      -0.129900
     33 C33         -0.6820    -0.6750     0.2980 ca         1 ELZ      -0.166500
     34 C34         -1.8740    -0.1100    -0.1340 ca         1 ELZ      -0.051000
     35 C35         -7.7370     0.0120    -0.5750 c          1 ELZ       0.682500
     36 O36         -8.1340    -1.0540    -1.0090 o          1 ELZ      -0.620500
     37 H1          -5.9730     2.8530    -0.5810 hc         1 ELZ       0.076700
     38 H2          -7.6080     2.7460    -1.2520 hc         1 ELZ       0.076700
     39 H4           1.2730    -3.9290     0.3940 h1         1 ELZ       0.065700
     40 H5          -1.9130    -3.5090     1.7020 ha         1 ELZ       0.152000
     41 H6          -4.0240    -2.5180     0.8980 ha         1 ELZ       0.148000
     42 H7          -6.6850     1.8140     1.5040 h1         1 ELZ       0.053200
     43 H8          -8.1600     2.6850     1.0700 h1         1 ELZ       0.053200
     44 H9          -9.9120     0.8350     1.6130 h1         1 ELZ       0.045700
     45 H10         -9.4650    -0.8130     1.1470 h1         1 ELZ       0.045700
     46 H11         -8.5940     0.0040     2.4530 h1         1 ELZ       0.045700
     47 H12         -6.7370    -0.0500    -2.9340 ho         1 ELZ       0.434000
     48 H13          2.6340    -2.3780    -1.0230 h1         1 ELZ       0.090200
     49 H14          0.9130    -2.2720    -1.3100 h1         1 ELZ       0.090200
     50 H15          0.9660     3.6120     0.4930 hn         1 ELZ       0.326500
     51 H16          2.2540     4.7480     0.2940 hn         1 ELZ       0.326500
     52 H17          4.8560     0.7140     0.7980 hn         1 ELZ       0.330500
     53 H18          6.5700     0.0490    -1.4570 h1         1 ELZ       0.076700
     54 H19          7.0300     2.0840    -0.1790 hc         1 ELZ       0.059450
     55 H20          7.1510     1.1660     1.3210 hc         1 ELZ       0.059450
     56 H21          8.9720     0.9380    -1.1240 h1         1 ELZ       0.047700
     57 H22          9.4110     1.6060     0.4500 h1         1 ELZ       0.047700
     58 H23          8.6540    -1.4770    -1.2500 h1         1 ELZ       0.047700
     59 H24          8.8800    -2.3910     0.2440 h1         1 ELZ       0.047700
     60 H25          6.7960    -1.4590     1.1820 hc         1 ELZ       0.059450
     61 H26          6.4670    -2.1630    -0.4000 hc         1 ELZ       0.059450
     62 H27         -1.8570     0.8440    -0.6440 ha         1 ELZ       0.158000
     63 H3           2.3690    -2.8830     1.3090 h1         1 ELZ       0.065700
@<TRIPOS>BOND
     1     1     3 1   
     2     1    11 1   
     3     1    37 1   
     4     1    38 1   
     5     2    14 1   
     6     2    15 1   
     7     2    39 1   
     8     2    63 1   
     9     3     5 1   
    10     3    13 1   
    11     3    35 1   
    12     4     8 ar  
    13     4     9 ar  
    14     4    40 1   
    15     5     6 3   
    16     6     7 1   
    17     7     8 ar  
    18     7    34 ar  
    19     8    41 1   
    20     9    14 1   
    21     9    33 ar  
    22    10    11 1   
    23    10    12 1   
    24    10    35 1   
    25    11    42 1   
    26    11    43 1   
    27    12    44 1   
    28    12    45 1   
    29    12    46 1   
    30    13    47 1   
    31    15    16 1   
    32    15    48 1   
    33    15    49 1   
    34    16    17 1   
    35    16    23 1   
    36    17    18 2   
    37    17    33 1   
    38    18    19 1   
    39    19    20 1   
    40    19    23 2   
    41    20    21 1   
    42    20    22 2   
    43    21    50 1   
    44    21    51 1   
    45    23    24 1   
    46    24    25 2   
    47    24    26 1   
    48    26    27 1   
    49    26    52 1   
    50    27    28 1   
    51    27    32 1   
    52    27    53 1   
    53    28    29 1   
    54    28    54 1   
    55    28    55 1   
    56    29    30 1   
    57    29    56 1   
    58    29    57 1   
    59    30    31 1   
    60    31    32 1   
    61    31    58 1   
    62    31    59 1   
    63    32    60 1   
    64    32    61 1   
    65    33    34 ar  
    66    34    62 1   
    67    35    36 2   
@<TRIPOS>SUBSTRUCTURE
     1 ELZ         1 TEMP              0 ****  ****    0 ROOT
