@<TRIPOS>MOLECULE
ELZ
   63    67     1     0     0
SMALL
No Charge or Current Charge


@<TRIPOS>ATOM
      1 C4          -6.6730     2.5450     0.0030 c5         1 ELZ      -0.081400
      2 C14          1.2290    -3.5990    -0.0810 c3         1 ELZ       0.156600
      3 C5          -6.5950     1.2860    -0.9140 c5         1 ELZ       0.195100
      4 C11         -2.1570    -3.0030     0.5670 ca         1 ELZ      -0.128000
      5 C7          -5.3660     0.4970    -0.6800 c1         1 ELZ      -0.153100
      6 C8          -4.3680    -0.1550    -0.4450 cg         1 ELZ      -0.084000
      7 C9          -3.1920    -0.9220    -0.1550 ca         1 ELZ       0.011000
      8 C10         -3.3100    -2.2610     0.2600 ca         1 ELZ      -0.060000
      9 C12         -0.8860    -2.4240     0.4270 ca         1 ELZ       0.134100
     10 N2          -8.2400     0.9520     0.7510 n          1 ELZ      -0.404800
     11 C3          -7.3660     2.0080     1.2930 c5         1 ELZ       0.097000
     12 C1          -9.4180     0.4070     1.4500 c3         1 ELZ       0.094300
     13 O6          -6.6100     1.6490    -2.3020 oh         1 ELZ      -0.626000
     14 O13          0.2150    -3.1400     0.8430 os         1 ELZ      -0.362100
     15 C15          1.6300    -2.4850    -1.0720 c3         1 ELZ       0.023600
     16 N16          1.6890    -1.1330    -0.4750 na         1 ELZ      -0.125500
     17 C17          0.5650    -0.4640    -0.0770 cc         1 ELZ       0.480000
     18 N18          0.8280     0.7980     0.1640 nd         1 ELZ      -0.665000
     19 C19          2.2070     0.9600     0.0210 cd         1 ELZ       0.200500
     20 C20          2.8590     2.3250     0.2350 c          1 ELZ       0.543600
     21 N21          1.9890     3.2960     0.5990 nt         1 ELZ      -0.588000
     22 O22          4.0310     2.6350     0.1070 o          1 ELZ      -0.627100
     23 C23          2.7890    -0.2790    -0.3210 cc         1 ELZ      -0.186600
     24 C24          4.2330    -0.6740    -0.4840 c          1 ELZ       0.645700
     25 O25          4.5700    -1.8160    -0.7630 o          1 ELZ      -0.611100
     26 N26          5.2040     0.2700    -0.2850 ns         1 ELZ      -0.465900
     27 C27          6.6520     0.0480    -0.3610 c6         1 ELZ       0.115700
     28 C28          7.3800     1.3830    -0.6530 c6         1 ELZ      -0.129900
     29 C29          8.9130     1.1830    -0.6250 c6         1 ELZ       0.156600
     30 O30          9.3080     0.6270     0.6470 os         1 ELZ      -0.450000
     31 C31          8.7280    -0.6650     0.9270 c6         1 ELZ       0.156600
     32 C32          7.1860    -0.5480     0.9670 c6         1 ELZ      -0.129900
     33 C33         -0.7550    -1.0860    -0.0070 ca         1 ELZ      -0.166500
     34 C34         -1.9190    -0.3330    -0.2720 ca         1 ELZ      -0.033000
     35 C35         -7.8770     0.4810    -0.5150 c          1 ELZ       0.540000
     36 O36         -8.4840    -0.3790    -1.1460 o          1 ELZ      -0.545000
     37 H1          -5.6990     3.0040     0.2040 hc         1 ELZ       0.076700
     38 H2          -7.2990     3.3170    -0.4590 hc         1 ELZ       0.076700
     39 H4           0.8690    -4.4670    -0.6490 h1         1 ELZ       0.065700
     40 H5          -2.2480    -4.0260     0.9230 ha         1 ELZ       0.134000
     41 H6          -4.2910    -2.7180     0.3650 ha         1 ELZ       0.130000
     42 H7          -6.6360     1.5790     1.9920 h1         1 ELZ       0.053200
     43 H8          -7.9320     2.7910     1.8150 h1         1 ELZ       0.053200
     44 H9         -10.3230     0.6050     0.8620 h1         1 ELZ       0.045700
     45 H10         -9.3020    -0.6760     1.5840 h1         1 ELZ       0.045700
     46 H11         -9.5200     0.8790     2.4360 h1         1 ELZ       0.045700
     47 H12         -6.6600     0.8060    -2.8060 ho         1 ELZ       0.473000
     48 H13          2.5700    -2.7510    -1.5620 h1         1 ELZ       0.090200
     49 H14          0.8760    -2.4580    -1.8690 h1         1 ELZ       0.090200
     50 H15          1.0120     3.0600     0.7030 hn         1 ELZ       0.326500
     51 H16          2.3220     4.2350     0.7580 hn         1 ELZ       0.326500
     52 H17          4.8890     1.2040    -0.0630 hn         1 ELZ       0.330500
     53 H18          6.8610    -0.6550    -1.1820 h1         1 ELZ       0.076700
     54 H19          7.0740     1.7730    -1.6330 hc         1 ELZ       0.059450
     55 H20          7.0980     2.1410     0.0910 hc         1 ELZ       0.059450
     56 H21          9.2270     0.5060    -1.4330 h1         1 ELZ       0.047700
     57 H22          9.4210     2.1470    -0.7680 h1         1 ELZ       0.047700
     58 H23          9.0390    -1.3810     0.1510 h1         1 ELZ       0.047700
     59 H24          9.1030    -1.0250     1.8950 h1         1 ELZ       0.047700
     60 H25          6.8900     0.0860     1.8140 hc         1 ELZ       0.059450
     61 H26          6.7460    -1.5380     1.1430 hc         1 ELZ       0.059450
     62 H27         -1.8340     0.7080    -0.5790 ha         1 ELZ       0.140000
     63 H3           2.1180    -3.9160     0.4790 h1         1 ELZ       0.065700
@<TRIPOS>BOND
     1     1     3 1   
     2     1    11 1   
     3     1    37 1   
     4     1    38 1   
     5     2    14 1   
     6     2    15 1   
     7     2    39 1   
     8     2    63 1   
     9     3     5 1   
    10     3    13 1   
    11     3    35 1   
    12     4     8 ar  
    13     4     9 ar  
    14     4    40 1   
    15     5     6 3   
    16     6     7 1   
    17     7     8 ar  
    18     7    34 ar  
    19     8    41 1   
    20     9    14 1   
    21     9    33 ar  
    22    10    11 1   
    23    10    12 1   
    24    10    35 1   
    25    11    42 1   
    26    11    43 1   
    27    12    44 1   
    28    12    45 1   
    29    12    46 1   
    30    13    47 1   
    31    15    16 1   
    32    15    48 1   
    33    15    49 1   
    34    16    17 1   
    35    16    23 1   
    36    17    18 2   
    37    17    33 1   
    38    18    19 1   
    39    19    20 1   
    40    19    23 2   
    41    20    21 1   
    42    20    22 2   
    43    21    50 1   
    44    21    51 1   
    45    23    24 1   
    46    24    25 2   
    47    24    26 1   
    48    26    27 1   
    49    26    52 1   
    50    27    28 1   
    51    27    32 1   
    52    27    53 1   
    53    28    29 1   
    54    28    54 1   
    55    28    55 1   
    56    29    30 1   
    57    29    56 1   
    58    29    57 1   
    59    30    31 1   
    60    31    32 1   
    61    31    58 1   
    62    31    59 1   
    63    32    60 1   
    64    32    61 1   
    65    33    34 ar  
    66    34    62 1   
    67    35    36 2   
@<TRIPOS>SUBSTRUCTURE
     1 ELZ         1 TEMP              0 ****  ****    0 ROOT
