@<TRIPOS>MOLECULE
EM0
   40    42     1     0     0
SMALL
abcg2


@<TRIPOS>ATOM
      1 F1          45.0380    39.3030    70.1450 f          1 EM0      -0.170000
      2 C1          44.6130    38.8910    71.3440 ca         1 EM0       0.221000
      3 C6          44.2790    39.8550    72.2850 ca         1 EM0      -0.137300
      4 C16         44.3870    41.3160    71.9720 c3         1 EM0      -0.043800
      5 C5          43.8500    39.3960    73.5230 ca         1 EM0       0.013000
      6 C4          43.7710    38.0350    73.7820 ca         1 EM0      -0.287500
      7 C3          44.1030    37.0930    72.8190 ca         1 EM0       0.014000
      8 C2          44.5290    37.5310    71.5780 ca         1 EM0      -0.176000
      9 S1          43.3000    37.4800    75.3900 sy         1 EM0       1.133600
     10 O1          42.7140    38.6070    76.1010 o          1 EM0      -0.537500
     11 O2          42.5410    36.2440    75.2930 o          1 EM0      -0.537500
     12 N1          44.7880    37.0410    76.0130 nu         1 EM0      -0.876100
     13 C7          45.7340    38.0840    76.2300 ca         1 EM0       0.187000
     14 C12         45.7640    38.8050    77.4190 ca         1 EM0      -0.067000
     15 C11         46.7100    39.7960    77.6130 ca         1 EM0      -0.139300
     16 C14         46.8580    40.5440    78.9000 c6         1 EM0       0.153300
     17 N3          47.3620    41.8870    78.6660 n          1 EM0      -0.400800
     18 C15         47.2010    42.8170    79.7620 c3         1 EM0       0.089300
     19 C13         48.3510    42.1100    77.7600 c          1 EM0       0.611000
     20 O3          49.0490    43.1120    77.7430 o          1 EM0      -0.573000
     21 N2          48.5110    41.1260    76.8090 ns         1 EM0      -0.148000
     22 C10         47.6010    40.1080    76.5900 ca         1 EM0       0.011000
     23 C9          47.5710    39.3980    75.3940 ca         1 EM0      -0.162000
     24 C8          46.6500    38.3780    75.2260 ca         1 EM0      -0.044000
     25 H1          43.7300    41.5970    71.1480 hc         1 EM0       0.051700
     26 H2          44.1110    41.9140    72.8380 hc         1 EM0       0.051700
     27 H3          45.4040    41.5890    71.6870 hc         1 EM0       0.051700
     28 H4          43.5870    40.1170    74.2860 ha         1 EM0       0.145000
     29 H5          44.0410    36.0320    73.0230 ha         1 EM0       0.141000
     30 H6          44.7960    36.8260    70.8020 ha         1 EM0       0.139000
     31 H7          44.6640    36.4050    76.7980 hn         1 EM0       0.489000
     32 H8          45.0570    38.5770    78.2080 ha         1 EM0       0.125000
     33 H9          45.8920    40.6250    79.4010 h1         1 EM0       0.053700
     34 H10         47.5220    39.9960    79.5840 h1         1 EM0       0.053700
     35 H11         46.1730    42.7650    80.1180 h1         1 EM0       0.047033
     36 H12         47.8650    42.5840    80.6000 h1         1 EM0       0.047033
     37 H13         47.3970    43.8330    79.4350 h1         1 EM0       0.047033
     38 H14         49.1750    41.3400    76.0800 hn         1 EM0       0.170000
     39 H15         48.2700    39.6350    74.6020 ha         1 EM0       0.126000
     40 H16         46.6380    37.8100    74.3050 ha         1 EM0       0.132000
@<TRIPOS>BOND
     1     1     2 1   
     2     2     3 ar  
     3     2     8 ar  
     4     3     4 1   
     5     3     5 ar  
     6     4    25 1   
     7     4    26 1   
     8     4    27 1   
     9     5     6 ar  
    10     5    28 1   
    11     6     7 ar  
    12     6     9 1   
    13     7     8 ar  
    14     7    29 1   
    15     8    30 1   
    16     9    10 2   
    17     9    11 2   
    18     9    12 1   
    19    12    13 1   
    20    12    31 1   
    21    13    14 ar  
    22    13    24 ar  
    23    14    15 ar  
    24    14    32 1   
    25    15    16 1   
    26    15    22 ar  
    27    16    17 1   
    28    16    33 1   
    29    16    34 1   
    30    17    18 1   
    31    17    19 1   
    32    18    35 1   
    33    18    36 1   
    34    18    37 1   
    35    19    20 2   
    36    19    21 1   
    37    21    22 1   
    38    21    38 1   
    39    22    23 ar  
    40    23    24 ar  
    41    23    39 1   
    42    24    40 1   
@<TRIPOS>SUBSTRUCTURE
     1 EM0         1 TEMP              0 ****  ****    0 ROOT
