@<TRIPOS>MOLECULE
EM0
   40    42     1     0     0
SMALL
No Charge or Current Charge


@<TRIPOS>ATOM
      1 F1          46.4680    37.7590    70.4680 f          1 EM0      -0.170000
      2 C1          45.5670    37.8620    71.4710 ca         1 EM0       0.221000
      3 C6          44.7010    38.9710    71.5350 ca         1 EM0      -0.137300
      4 C16         44.7660    40.0680    70.4770 c3         1 EM0      -0.043800
      5 C5          43.7710    39.0570    72.5900 ca         1 EM0       0.013000
      6 C4          43.7140    38.0430    73.5700 ca         1 EM0      -0.287500
      7 C3          44.5840    36.9390    73.4950 ca         1 EM0       0.014000
      8 C2          45.5100    36.8520    72.4430 ca         1 EM0      -0.176000
      9 S1          42.5450    38.1580    74.9290 sy         1 EM0       1.133600
     10 O1          41.6740    39.3260    74.7730 o          1 EM0      -0.537500
     11 O2          42.0230    36.8270    75.2420 o          1 EM0      -0.537500
     12 N1          43.4800    38.4970    76.2860 nu         1 EM0      -0.876100
     13 C7          44.4500    39.4830    76.4990 ca         1 EM0       0.187000
     14 C12         45.3870    39.2960    77.5340 ca         1 EM0      -0.067000
     15 C11         46.3870    40.2560    77.7830 ca         1 EM0      -0.139300
     16 C14         47.4040    40.0420    78.9060 c6         1 EM0       0.153300
     17 N3          48.4040    41.1320    79.0560 n          1 EM0      -0.400800
     18 C15         49.4150    40.9840    80.1240 c3         1 EM0       0.089300
     19 C13         48.4250    42.2820    78.2340 c          1 EM0       0.611000
     20 O3          49.2570    43.1680    78.3740 o          1 EM0      -0.573000
     21 N2          47.4540    42.3530    77.2600 ns         1 EM0      -0.148000
     22 C10         46.4480    41.4120    76.9940 ca         1 EM0       0.011000
     23 C9          45.5180    41.6170    75.9630 ca         1 EM0      -0.162000
     24 C8          44.5210    40.6570    75.7180 ca         1 EM0      -0.044000
     25 H1          44.5680    39.6620    69.4780 hc         1 EM0       0.051700
     26 H2          44.0320    40.8610    70.6630 hc         1 EM0       0.051700
     27 H3          45.7580    40.5350    70.4570 hc         1 EM0       0.051700
     28 H4          43.0970    39.9110    72.6440 ha         1 EM0       0.145000
     29 H5          44.5490    36.1530    74.2490 ha         1 EM0       0.141000
     30 H6          46.1850    36.0030    72.3810 ha         1 EM0       0.139000
     31 H7          43.5430    37.6360    76.8150 hn         1 EM0       0.489000
     32 H8          45.3410    38.3990    78.1470 ha         1 EM0       0.125000
     33 H9          46.8600    39.9300    79.8550 h1         1 EM0       0.053700
     34 H10         47.9360    39.0980    78.7220 h1         1 EM0       0.053700
     35 H11         49.2630    40.0430    80.6690 h1         1 EM0       0.047033
     36 H12         50.4210    40.9800    79.6850 h1         1 EM0       0.047033
     37 H13         49.3330    41.8190    80.8310 h1         1 EM0       0.047033
     38 H14         47.4690    43.1750    76.6720 hn         1 EM0       0.170000
     39 H15         45.5640    42.5170    75.3540 ha         1 EM0       0.126000
     40 H16         43.8040    40.8390    74.9240 ha         1 EM0       0.132000
@<TRIPOS>BOND
     1     1     2 1   
     2     2     3 ar  
     3     2     8 ar  
     4     3     4 1   
     5     3     5 ar  
     6     4    25 1   
     7     4    26 1   
     8     4    27 1   
     9     5     6 ar  
    10     5    28 1   
    11     6     7 ar  
    12     6     9 1   
    13     7     8 ar  
    14     7    29 1   
    15     8    30 1   
    16     9    10 2   
    17     9    11 2   
    18     9    12 1   
    19    12    13 1   
    20    12    31 1   
    21    13    14 ar  
    22    13    24 ar  
    23    14    15 ar  
    24    14    32 1   
    25    15    16 1   
    26    15    22 ar  
    27    16    17 1   
    28    16    33 1   
    29    16    34 1   
    30    17    18 1   
    31    17    19 1   
    32    18    35 1   
    33    18    36 1   
    34    18    37 1   
    35    19    20 2   
    36    19    21 1   
    37    21    22 1   
    38    21    38 1   
    39    22    23 ar  
    40    23    24 ar  
    41    23    39 1   
    42    24    40 1   
@<TRIPOS>SUBSTRUCTURE
     1 EM0         1 TEMP              0 ****  ****    0 ROOT
