@<TRIPOS>MOLECULE
EM1
  125   129     1     0     0
SMALL
abcg2


@<TRIPOS>ATOM
      1 C1         -60.1510   -58.1010     5.2130 c3         1 EM1      -0.085100
      2 C2         -60.2830   -56.6980     5.7710 c5         1 EM1       0.168000
      3 C3         -61.5030   -56.4130     6.7070 c5         1 EM1       0.111700
      4 C4         -60.2270   -55.6200     4.6640 c3         1 EM1       0.161300
      5 O5         -59.1370   -56.4550     6.6350 os         1 EM1      -0.423100
      6 N6         -60.8600   -55.5410     7.6880 n          1 EM1      -0.449800
      7 C7         -62.1610   -57.6900     7.2920 c3         1 EM1      -0.174700
      8 C8         -58.9360   -55.5820     3.8610 c3         1 EM1      -0.083400
      9 O9         -61.3310   -55.9310     3.7640 os         1 EM1      -0.438100
     10 C10        -59.5200   -55.6900     7.6950 c          1 EM1       0.687100
     11 C11        -61.5430   -54.7050     8.6760 c3         1 EM1       0.133000
     12 C12        -61.3600   -58.3000     8.4520 c3         1 EM1      -0.087100
     13 C13        -63.6010   -57.5000     7.7610 c          1 EM1       0.593100
     14 C14        -58.9180   -54.4860     2.7980 c3         1 EM1      -0.091100
     15 C15        -62.1550   -54.9610     3.3900 c          1 EM1       0.591100
     16 O16        -58.7100   -55.2460     8.4860 o          1 EM1      -0.537000
     17 C17        -61.1520   -53.2330     8.5750 c3         1 EM1      -0.103400
     18 O18        -63.8730   -56.7270     8.6610 o          1 EM1      -0.536100
     19 C19        -64.6820   -58.3800     7.1520 c3         1 EM1      -0.160700
     20 O20        -62.1430   -53.8250     3.7920 o          1 EM1      -0.466000
     21 C21        -63.1330   -55.4290     2.3030 c3         1 EM1       0.046000
     22 C23        -64.2930   -59.8650     7.1670 c3         1 EM1      -0.086100
     23 C24        -65.0610   -57.9540     5.7210 c3         1 EM1      -0.062400
     24 C25        -62.9140   -54.6070     1.0380 c3         1 EM1      -0.106100
     25 F25        -62.8830   -56.7690     1.9980 f          1 EM1      -0.240000
     26 C26        -64.5960   -55.2870     2.7960 c          1 EM1       0.580100
     27 C28        -65.6440   -56.5430     5.5620 c3         1 EM1       0.185000
     28 O29        -65.0710   -54.1790     2.8790 o          1 EM1      -0.499100
     29 C30        -65.4030   -56.5510     2.9970 c3         1 EM1      -0.165700
     30 O32        -64.4970   -55.6640     5.5510 os         1 EM1      -0.500000
     31 C33        -66.6250   -56.2050     6.6830 c3         1 EM1      -0.118100
     32 C34        -66.3630   -56.3940     4.1900 c3         1 EM1       0.166300
     33 C35        -66.1290   -56.8090     1.6610 c3         1 EM1      -0.090100
     34 C38        -64.6890   -54.3130     5.9540 c3         1 EM1       0.136900
     35 O39        -67.4070   -57.3710     4.1370 os         1 EM1      -0.434000
     36 C42        -68.6630   -56.9070     3.7450 c6         1 EM1       0.393300
     37 C44        -69.5610   -58.0990     3.4470 c6         1 EM1       0.151300
     38 O45        -69.2120   -56.1560     4.8140 os         1 EM1      -0.501000
     39 O48        -69.0480   -58.8490     2.3560 oh         1 EM1      -0.716000
     40 C49        -70.9660   -57.5920     3.1060 c6         1 EM1       0.139500
     41 C50        -70.4980   -55.5860     4.5150 c6         1 EM1       0.183300
     42 N53        -71.7960   -58.7260     2.6860 n3         1 EM1      -0.742600
     43 C54        -71.4990   -56.7030     4.2310 c6         1 EM1      -0.132400
     44 C55        -70.8840   -54.7200     5.6950 c3         1 EM1      -0.087100
     45 C57        -72.2570   -59.5860     3.7720 c3         1 EM1       0.153600
     46 C58        -72.9010   -58.3320     1.8220 c3         1 EM1       0.153600
     47 C72        -53.6390   -52.5570     6.6580 ca         1 EM1       0.282000
     48 C73        -53.2390   -52.1150     7.9270 ca         1 EM1      -0.173000
     49 C74        -54.1770   -51.6000     8.8110 ca         1 EM1      -0.075000
     50 C75        -55.5190   -51.5120     8.4610 ca         1 EM1      -0.144000
     51 C76        -55.9320   -51.9470     7.1960 ca         1 EM1      -0.061500
     52 C77        -54.9900   -52.4660     6.3070 ca         1 EM1      -0.145000
     53 C78        -57.3400   -51.8600     6.8040 cc         1 EM1       0.266500
     54 C79        -58.4230   -51.3630     7.5070 cd         1 EM1      -0.188000
     55 N80        -59.4770   -51.5240     6.6850 na         1 EM1       0.115800
     56 N81        -59.0960   -52.0900     5.5320 nd         1 EM1      -0.212800
     57 N82        -57.8080   -52.2900     5.5970 nc         1 EM1      -0.362000
     58 C83        -60.8910   -51.2750     6.9550 c3         1 EM1       0.087600
     59 C84        -61.6320   -52.5670     7.2870 c3         1 EM1      -0.096400
     60 H1         -60.9830   -58.3270     4.5480 hc         1 EM1       0.057033
     61 H1A        -59.2250   -58.1860     4.6470 hc         1 EM1       0.057033
     62 H1B        -60.1240   -58.8380     6.0100 hc         1 EM1       0.057033
     63 H3         -62.2630   -55.8630     6.1590 h1         1 EM1       0.095700
     64 H4         -60.4100   -54.6450     5.1090 h1         1 EM1       0.088700
     65 H7         -62.1920   -58.4030     6.4730 hc         1 EM1       0.070700
     66 H8         -58.1260   -55.4170     4.5720 hc         1 EM1       0.063700
     67 H8A        -58.7640   -56.5520     3.3920 hc         1 EM1       0.063700
     68 H11        -62.6080   -54.8370     8.5180 h1         1 EM1       0.063700
     69 H11A       -61.3160   -55.0820     9.6750 h1         1 EM1       0.063700
     70 H12        -61.7880   -59.2570     8.7510 hc         1 EM1       0.048367
     71 H12A       -60.3230   -58.4720     8.1660 hc         1 EM1       0.048367
     72 H12B       -61.3740   -57.6360     9.3150 hc         1 EM1       0.048367
     73 H14        -57.9460   -54.4640     2.3030 hc         1 EM1       0.040700
     74 H14A       -59.6730   -54.6600     2.0300 hc         1 EM1       0.040700
     75 H14B       -59.0970   -53.5070     3.2420 hc         1 EM1       0.040700
     76 H17        -61.5720   -52.7120     9.4390 hc         1 EM1       0.059200
     77 H17A       -60.0680   -53.1600     8.6630 hc         1 EM1       0.059200
     78 H19        -65.5510   -58.2570     7.7970 hc         1 EM1       0.074700
     79 H23        -65.1560   -60.4590     6.8590 hc         1 EM1       0.041367
     80 H23A       -63.4780   -60.0830     6.4760 hc         1 EM1       0.041367
     81 H23B       -63.9980   -60.1910     8.1650 hc         1 EM1       0.041367
     82 H24        -64.1840   -58.0460     5.0770 hc         1 EM1       0.065200
     83 H24A       -65.7980   -58.6730     5.3620 hc         1 EM1       0.065200
     84 H25        -63.5910   -54.9570     0.2600 hc         1 EM1       0.065700
     85 H25A       -63.1150   -53.5600     1.2470 hc         1 EM1       0.065700
     86 H25B       -61.8830   -54.7190     0.7030 hc         1 EM1       0.065700
     87 H30        -64.7300   -57.3850     3.1720 hc         1 EM1       0.091700
     88 H33        -67.1420   -55.2680     6.4850 hc         1 EM1       0.055700
     89 H33A       -67.3790   -56.9860     6.7470 hc         1 EM1       0.055700
     90 H33B       -66.1120   -56.1330     7.6390 hc         1 EM1       0.055700
     91 H34        -66.8080   -55.3990     4.1510 h1         1 EM1       0.067700
     92 H35        -66.7190   -57.7190     1.7340 hc         1 EM1       0.051367
     93 H35A       -66.7910   -55.9790     1.4110 hc         1 EM1       0.051367
     94 H35B       -65.4060   -56.9270     0.8530 hc         1 EM1       0.051367
     95 H38        -63.7780   -53.7880     5.6830 h1         1 EM1       0.041700
     96 H38A       -65.5280   -53.8450     5.4360 h1         1 EM1       0.041700
     97 H38B       -64.8400   -54.2430     7.0320 h1         1 EM1       0.041700
     98 H42        -68.5830   -56.2630     2.8590 h2         1 EM1       0.034700
     99 H44        -69.5850   -58.7150     4.3550 h1         1 EM1       0.060700
    100 HO48       -69.8370   -59.2760     1.9750 ho         1 EM1       0.529000
    101 H49        -70.8520   -56.9680     2.2130 h1         1 EM1       0.061700
    102 H50        -70.3940   -54.9620     3.6160 h1         1 EM1       0.035700
    103 H54        -72.4610   -56.2700     3.9520 hc         1 EM1       0.058700
    104 H54A       -71.6430   -57.2820     5.1460 hc         1 EM1       0.058700
    105 H55        -71.8470   -54.2410     5.5100 hc         1 EM1       0.048033
    106 H55A       -70.9670   -55.3270     6.5990 hc         1 EM1       0.048033
    107 H55B       -70.1370   -53.9420     5.8630 hc         1 EM1       0.048033
    108 H57        -72.6870   -60.4940     3.3460 h1         1 EM1       0.036200
    109 H57A       -71.4240   -59.8730     4.4120 h1         1 EM1       0.036200
    110 H57B       -73.0250   -59.1080     4.3970 h1         1 EM1       0.036200
    111 H58        -73.3900   -59.2250     1.4300 h1         1 EM1       0.036200
    112 H58A       -73.6620   -57.7330     2.3460 h1         1 EM1       0.036200
    113 H58B       -72.5230   -57.7480     0.9820 h1         1 EM1       0.036200
    114 HN71       -52.9790   -53.1030     4.8090 hn         1 EM1       0.444500
    115 HN7A       -51.7590   -52.8530     5.9290 hn         1 EM1       0.444500
    116 H74        -53.8550   -51.2600     9.7880 ha         1 EM1       0.108000
    117 H75        -56.2360   -51.1090     9.1640 ha         1 EM1       0.107000
    118 H77        -55.3070   -52.8000     5.3280 ha         1 EM1       0.130000
    119 H83        -60.9370   -50.5620     7.7770 h1         1 EM1       0.068200
    120 H83A       -61.3130   -50.8070     6.0670 h1         1 EM1       0.068200
    121 H84        -62.6960   -52.3310     7.3610 hc         1 EM1       0.062700
    122 H84A       -61.5200   -53.2450     6.4420 hc         1 EM1       0.062700
    123 H79        -58.5210   -50.9250     8.4840 h4         1 EM1       0.165000
    124 H73        -52.1940   -52.1780     8.2100 ha         1 EM1       0.109000
    125 N71        -52.7200   -53.1270     5.7850 nv         1 EM1      -1.075000
@<TRIPOS>BOND
     1     1     2 1   
     2     1    60 1   
     3     1    61 1   
     4     1    62 1   
     5     2     3 1   
     6     2     4 1   
     7     2     5 1   
     8     3     6 1   
     9     3     7 1   
    10     3    63 1   
    11     4     8 1   
    12     4     9 1   
    13     4    64 1   
    14     5    10 1   
    15     6    10 1   
    16     6    11 1   
    17     7    12 1   
    18     7    13 1   
    19     7    65 1   
    20     8    14 1   
    21     8    66 1   
    22     8    67 1   
    23     9    15 1   
    24    10    16 2   
    25    11    17 1   
    26    11    68 1   
    27    11    69 1   
    28    12    70 1   
    29    12    71 1   
    30    12    72 1   
    31    13    18 2   
    32    13    19 1   
    33    14    73 1   
    34    14    74 1   
    35    14    75 1   
    36    15    20 2   
    37    15    21 1   
    38    17    59 1   
    39    17    76 1   
    40    17    77 1   
    41    19    22 1   
    42    19    23 1   
    43    19    78 1   
    44    21    24 1   
    45    21    25 1   
    46    21    26 1   
    47    22    79 1   
    48    22    80 1   
    49    22    81 1   
    50    23    27 1   
    51    23    82 1   
    52    23    83 1   
    53    24    84 1   
    54    24    85 1   
    55    24    86 1   
    56    26    28 2   
    57    26    29 1   
    58    27    30 1   
    59    27    31 1   
    60    27    32 1   
    61    29    32 1   
    62    29    33 1   
    63    29    87 1   
    64    30    34 1   
    65    31    88 1   
    66    31    89 1   
    67    31    90 1   
    68    32    35 1   
    69    32    91 1   
    70    33    92 1   
    71    33    93 1   
    72    33    94 1   
    73    34    95 1   
    74    34    96 1   
    75    34    97 1   
    76    35    36 1   
    77    36    37 1   
    78    36    38 1   
    79    36    98 1   
    80    37    39 1   
    81    37    40 1   
    82    37    99 1   
    83    38    41 1   
    84    39   100 1   
    85    40    42 1   
    86    40    43 1   
    87    40   101 1   
    88    41    43 1   
    89    41    44 1   
    90    41   102 1   
    91    42    45 1   
    92    42    46 1   
    93    43   103 1   
    94    43   104 1   
    95    44   105 1   
    96    44   106 1   
    97    44   107 1   
    98    45   108 1   
    99    45   109 1   
   100    45   110 1   
   101    46   111 1   
   102    46   112 1   
   103    46   113 1   
   104    47    48 ar  
   105    47    52 ar  
   106    47   125 1   
   107    48    49 ar  
   108    48   124 1   
   109    49    50 ar  
   110    49   116 1   
   111    50    51 ar  
   112    50   117 1   
   113    51    52 ar  
   114    51    53 1   
   115    52   118 1   
   116    53    54 2   
   117    53    57 1   
   118    54    55 1   
   119    54   123 1   
   120    55    56 1   
   121    55    58 1   
   122    56    57 2   
   123    58    59 1   
   124    58   119 1   
   125    58   120 1   
   126    59   121 1   
   127    59   122 1   
   128   114   125 1   
   129   115   125 1   
@<TRIPOS>SUBSTRUCTURE
     1 EM1         1 TEMP              0 ****  ****    0 ROOT
