@<TRIPOS>MOLECULE
EM1
  125   129     1     0     0
SMALL
No Charge or Current Charge


@<TRIPOS>ATOM
      1 C1         -60.3000   -58.8110     5.4530 c3         1 EM1      -0.085100
      2 C2         -59.9700   -57.6820     6.4710 c5         1 EM1       0.168000
      3 C3         -61.1080   -57.3110     7.5180 c5         1 EM1       0.111700
      4 C4         -59.4370   -56.4030     5.7000 c3         1 EM1       0.161300
      5 O5         -58.8930   -58.1820     7.3000 os         1 EM1      -0.423100
      6 N6         -60.2060   -56.9890     8.6470 n          1 EM1      -0.449800
      7 C7         -62.1570   -58.4280     7.8630 c3         1 EM1      -0.174700
      8 C8         -57.9560   -56.4670     5.2280 c3         1 EM1      -0.083400
      9 O9         -60.2070   -56.2210     4.4890 os         1 EM1      -0.438100
     10 C10        -58.9480   -57.5670     8.5080 c          1 EM1       0.687100
     11 C11        -60.5150   -56.1520     9.8280 c3         1 EM1       0.133000
     12 C12        -61.6510   -59.5110     8.8590 c3         1 EM1      -0.087100
     13 C13        -63.5250   -57.8450     8.3120 c          1 EM1       0.593100
     14 C14        -57.4800   -55.1900     4.5010 c3         1 EM1      -0.091100
     15 C15        -61.3790   -55.5090     4.5290 c          1 EM1       0.591100
     16 O16        -58.0400   -57.5420     9.3230 o          1 EM1      -0.537000
     17 C17        -60.4410   -54.6360     9.5460 c3         1 EM1      -0.103400
     18 O18        -63.6100   -57.0570     9.2430 o          1 EM1      -0.536100
     19 C19        -64.8130   -58.3910     7.6320 c3         1 EM1      -0.160700
     20 O20        -61.6850   -54.7860     5.4600 o          1 EM1      -0.466000
     21 C21        -62.0920   -55.5020     3.1670 c3         1 EM1       0.046000
     22 C23        -64.9060   -59.9390     7.7090 c3         1 EM1      -0.086100
     23 C24        -65.0200   -57.8860     6.1620 c3         1 EM1      -0.062400
     24 C25        -61.3840   -54.4840     2.2310 c3         1 EM1      -0.106100
     25 F25        -61.9790   -56.7220     2.5630 f          1 EM1      -0.240000
     26 C26        -63.5870   -55.1250     3.3940 c          1 EM1       0.580100
     27 C28        -65.4680   -56.3930     5.9520 c3         1 EM1       0.185000
     28 O29        -63.9570   -53.9560     3.4140 o          1 EM1      -0.499100
     29 C30        -64.6370   -56.2710     3.3750 c3         1 EM1      -0.165700
     30 O32        -64.3570   -55.5750     6.3960 os         1 EM1      -0.500000
     31 C33        -66.7070   -56.0620     6.8420 c3         1 EM1      -0.118100
     32 C34        -65.7930   -56.0740     4.4290 c3         1 EM1       0.166300
     33 C35        -65.1330   -56.4070     1.9040 c3         1 EM1      -0.090100
     34 C38        -64.5830   -54.1520     6.5740 c3         1 EM1       0.136900
     35 O39        -66.8970   -56.9340     4.0580 os         1 EM1      -0.434000
     36 C42        -68.0250   -56.3270     3.3930 c6         1 EM1       0.393300
     37 C44        -69.0770   -57.4050     2.9670 c6         1 EM1       0.151300
     38 O45        -68.6540   -55.3990     4.3030 os         1 EM1      -0.501000
     39 O48        -68.5960   -58.4050     2.0460 oh         1 EM1      -0.716000
     40 C49        -70.2820   -56.6870     2.2990 c6         1 EM1       0.139500
     41 C50        -69.7470   -54.6580     3.7250 c6         1 EM1       0.183300
     42 N53        -71.2770   -57.6710     1.7540 n3         1 EM1      -0.742600
     43 C54        -70.8690   -55.6300     3.2740 c6         1 EM1      -0.132400
     44 C55        -70.2280   -53.6560     4.7990 c3         1 EM1      -0.087100
     45 C57        -71.9560   -58.5180     2.7700 c3         1 EM1       0.153600
     46 C58        -72.2440   -57.0630     0.8090 c3         1 EM1       0.153600
     47 C72        -57.0720   -50.9010     3.2830 ca         1 EM1       0.282000
     48 C73        -55.8510   -51.1150     3.9360 ca         1 EM1      -0.173000
     49 C74        -55.8340   -51.4950     5.2870 ca         1 EM1      -0.075000
     50 C75        -57.0410   -51.6630     5.9860 ca         1 EM1      -0.144000
     51 C76        -58.2840   -51.4620     5.3400 ca         1 EM1      -0.061500
     52 C77        -58.2780   -51.0740     3.9800 ca         1 EM1      -0.145000
     53 C78        -59.5630   -51.6320     6.0520 cc         1 EM1       0.266500
     54 C79        -59.6450   -52.0880     7.3310 cd         1 EM1      -0.188000
     55 N80        -61.0040   -52.1000     7.5600 na         1 EM1       0.115800
     56 N81        -61.6840   -51.6330     6.4570 nd         1 EM1      -0.212800
     57 N82        -60.7950   -51.3580     5.5350 nc         1 EM1      -0.362000
     58 C83        -61.7120   -52.4920     8.7930 c3         1 EM1       0.087600
     59 C84        -61.7700   -54.0190     9.0450 c3         1 EM1      -0.096400
     60 H1         -61.2180   -58.5950     4.8960 hc         1 EM1       0.057033
     61 H1A        -59.4940   -58.9320     4.7220 hc         1 EM1       0.057033
     62 H1B        -60.4270   -59.7780     5.9530 hc         1 EM1       0.057033
     63 H3         -61.6660   -56.4320     7.1860 h1         1 EM1       0.095700
     64 H4         -59.5190   -55.5290     6.3620 h1         1 EM1       0.088700
     65 H7         -62.3900   -58.9720     6.9460 hc         1 EM1       0.070700
     66 H8         -57.3040   -56.6190     6.0960 hc         1 EM1       0.063700
     67 H8A        -57.8090   -57.3300     4.5690 hc         1 EM1       0.063700
     68 H11        -61.4970   -56.4140    10.2340 h1         1 EM1       0.063700
     69 H11A       -59.7930   -56.3830    10.6220 h1         1 EM1       0.063700
     70 H12        -62.3770   -60.3240     8.9640 hc         1 EM1       0.048367
     71 H12A       -60.7100   -59.9550     8.5110 hc         1 EM1       0.048367
     72 H12B       -61.4820   -59.0850     9.8550 hc         1 EM1       0.048367
     73 H14        -56.4140   -55.2660     4.2530 hc         1 EM1       0.040700
     74 H14A       -58.0340   -55.0330     3.5680 hc         1 EM1       0.040700
     75 H14B       -57.6200   -54.3110     5.1390 hc         1 EM1       0.040700
     76 H17        -60.1600   -54.1300    10.4770 hc         1 EM1       0.059200
     77 H17A       -59.6320   -54.4490     8.8310 hc         1 EM1       0.059200
     78 H19        -65.6480   -58.0300     8.2400 hc         1 EM1       0.074700
     79 H23        -65.8920   -60.2800     7.3700 hc         1 EM1       0.041367
     80 H23A       -64.1510   -60.4260     7.0800 hc         1 EM1       0.041367
     81 H23B       -64.7760   -60.2830     8.7420 hc         1 EM1       0.041367
     82 H24        -64.0970   -58.0730     5.6020 hc         1 EM1       0.065200
     83 H24A       -65.7790   -58.5250     5.6960 hc         1 EM1       0.065200
     84 H25        -61.8970   -54.4250     1.2630 hc         1 EM1       0.065700
     85 H25A       -61.3740   -53.4810     2.6760 hc         1 EM1       0.065700
     86 H25B       -60.3450   -54.7820     2.0480 hc         1 EM1       0.065700
     87 H30        -64.1230   -57.2120     3.5860 hc         1 EM1       0.091700
     88 H33        -67.1700   -55.1140     6.5450 hc         1 EM1       0.055700
     89 H33A       -67.4730   -56.8410     6.7450 hc         1 EM1       0.055700
     90 H33B       -66.4360   -55.9780     7.9000 hc         1 EM1       0.055700
     91 H34        -66.1210   -55.0280     4.3700 h1         1 EM1       0.067700
     92 H35        -65.7800   -57.2840     1.7770 hc         1 EM1       0.051367
     93 H35A       -65.6850   -55.5130     1.5900 hc         1 EM1       0.051367
     94 H35B       -64.2870   -56.5320     1.2170 hc         1 EM1       0.051367
     95 H38        -63.6310   -53.6240     6.6890 h1         1 EM1       0.041700
     96 H38A       -65.1050   -53.7070     5.7200 h1         1 EM1       0.041700
     97 H38B       -65.1740   -53.9570     7.4770 h1         1 EM1       0.041700
     98 H42        -67.6810   -55.7850     2.5010 h2         1 EM1       0.034700
     99 H44        -69.4270   -57.8920     3.8880 h1         1 EM1       0.060700
    100 HO48       -69.4210   -58.6280     1.5420 ho         1 EM1       0.529000
    101 H49        -69.8680   -56.1250     1.4460 h1         1 EM1       0.061700
    102 H50        -69.3730   -54.0920     2.8590 h1         1 EM1       0.035700
    103 H54        -71.6710   -55.0610     2.7880 hc         1 EM1       0.058700
    104 H54A       -71.3080   -56.1180     4.1530 hc         1 EM1       0.058700
    105 H55        -71.0480   -53.0360     4.4160 hc         1 EM1       0.048033
    106 H55A       -70.5890   -54.1740     5.6950 hc         1 EM1       0.048033
    107 H55B       -69.4160   -52.9840     5.1000 hc         1 EM1       0.048033
    108 H57        -72.5850   -59.2740     2.2810 h1         1 EM1       0.036200
    109 H57A       -71.2330   -59.0520     3.4000 h1         1 EM1       0.036200
    110 H57B       -72.6020   -57.9150     3.4220 h1         1 EM1       0.036200
    111 H58        -72.8450   -57.8400     0.3180 h1         1 EM1       0.036200
    112 H58A       -72.9310   -56.3800     1.3280 h1         1 EM1       0.036200
    113 H58B       -71.7220   -56.4970     0.0260 h1         1 EM1       0.036200
    114 HN71       -57.9520   -50.2180     1.5320 hn         1 EM1       0.444500
    115 HN7A       -56.2130   -50.2540     1.5080 hn         1 EM1       0.444500
    116 H74        -54.8850   -51.6570     5.7950 ha         1 EM1       0.108000
    117 H75        -56.9940   -51.9530     7.0320 ha         1 EM1       0.107000
    118 H77        -59.2170   -50.9070     3.4590 ha         1 EM1       0.130000
    119 H83        -61.2350   -51.9930     9.6450 h1         1 EM1       0.068200
    120 H83A       -62.7390   -52.1110     8.7250 h1         1 EM1       0.068200
    121 H84        -62.5450   -54.2090     9.7980 hc         1 EM1       0.062700
    122 H84A       -62.0980   -54.5220     8.1320 hc         1 EM1       0.062700
    123 H79        -58.9010   -52.3880     8.0540 h4         1 EM1       0.165000
    124 H73        -54.9130   -50.9840     3.4020 ha         1 EM1       0.109000
    125 N71        -57.0830   -50.5200     1.9670 nv         1 EM1      -1.075000
@<TRIPOS>BOND
     1     1     2 1   
     2     1    60 1   
     3     1    61 1   
     4     1    62 1   
     5     2     3 1   
     6     2     4 1   
     7     2     5 1   
     8     3     6 1   
     9     3     7 1   
    10     3    63 1   
    11     4     8 1   
    12     4     9 1   
    13     4    64 1   
    14     5    10 1   
    15     6    10 1   
    16     6    11 1   
    17     7    12 1   
    18     7    13 1   
    19     7    65 1   
    20     8    14 1   
    21     8    66 1   
    22     8    67 1   
    23     9    15 1   
    24    10    16 2   
    25    11    17 1   
    26    11    68 1   
    27    11    69 1   
    28    12    70 1   
    29    12    71 1   
    30    12    72 1   
    31    13    18 2   
    32    13    19 1   
    33    14    73 1   
    34    14    74 1   
    35    14    75 1   
    36    15    20 2   
    37    15    21 1   
    38    17    59 1   
    39    17    76 1   
    40    17    77 1   
    41    19    22 1   
    42    19    23 1   
    43    19    78 1   
    44    21    24 1   
    45    21    25 1   
    46    21    26 1   
    47    22    79 1   
    48    22    80 1   
    49    22    81 1   
    50    23    27 1   
    51    23    82 1   
    52    23    83 1   
    53    24    84 1   
    54    24    85 1   
    55    24    86 1   
    56    26    28 2   
    57    26    29 1   
    58    27    30 1   
    59    27    31 1   
    60    27    32 1   
    61    29    32 1   
    62    29    33 1   
    63    29    87 1   
    64    30    34 1   
    65    31    88 1   
    66    31    89 1   
    67    31    90 1   
    68    32    35 1   
    69    32    91 1   
    70    33    92 1   
    71    33    93 1   
    72    33    94 1   
    73    34    95 1   
    74    34    96 1   
    75    34    97 1   
    76    35    36 1   
    77    36    37 1   
    78    36    38 1   
    79    36    98 1   
    80    37    39 1   
    81    37    40 1   
    82    37    99 1   
    83    38    41 1   
    84    39   100 1   
    85    40    42 1   
    86    40    43 1   
    87    40   101 1   
    88    41    43 1   
    89    41    44 1   
    90    41   102 1   
    91    42    45 1   
    92    42    46 1   
    93    43   103 1   
    94    43   104 1   
    95    44   105 1   
    96    44   106 1   
    97    44   107 1   
    98    45   108 1   
    99    45   109 1   
   100    45   110 1   
   101    46   111 1   
   102    46   112 1   
   103    46   113 1   
   104    47    48 ar  
   105    47    52 ar  
   106    47   125 1   
   107    48    49 ar  
   108    48   124 1   
   109    49    50 ar  
   110    49   116 1   
   111    50    51 ar  
   112    50   117 1   
   113    51    52 ar  
   114    51    53 1   
   115    52   118 1   
   116    53    54 2   
   117    53    57 1   
   118    54    55 1   
   119    54   123 1   
   120    55    56 1   
   121    55    58 1   
   122    56    57 2   
   123    58    59 1   
   124    58   119 1   
   125    58   120 1   
   126    59   121 1   
   127    59   122 1   
   128   114   125 1   
   129   115   125 1   
@<TRIPOS>SUBSTRUCTURE
     1 EM1         1 TEMP              0 ****  ****    0 ROOT
