@<TRIPOS>MOLECULE
EM4
  158   159     1     0     0
SMALL
abcg2


@<TRIPOS>ATOM
      1 C1          -1.8970     1.8090     1.2880 c3         1 EM4      -0.148400
      2 C2          -0.5810     1.7170     2.0410 c3         1 EM4      -0.063400
      3 C3           0.4540     0.8850     1.2940 c3         1 EM4      -0.077400
      4 C4           1.8250     0.9150     1.9600 c3         1 EM4      -0.074400
      5 C5           2.8760     0.0950     1.2200 c3         1 EM4      -0.074400
      6 C6           4.2840     0.3040     1.7620 c3         1 EM4      -0.074400
      7 C7           5.3500    -0.4950     1.0230 c3         1 EM4      -0.073400
      8 O1          -9.7700    -2.1130     2.4460 o          1 EM4      -0.605100
      9 O3          -7.3620     4.3980     1.4110 oh         1 EM4      -0.644000
     10 O4          -4.5860     5.5230    -0.2160 os         1 EM4      -0.479000
     11 O5          -5.5280     6.9230    -2.4140 oh         1 EM4      -0.712000
     12 O6          -3.8180     5.7670    -4.3590 oh         1 EM4      -0.674000
     13 O7          -1.3920     6.4510    -3.2160 oh         1 EM4      -0.715000
     14 C52         27.9370    -3.2770    -1.6860 c3         1 EM4      -0.088100
     15 C51         26.8230    -2.5460    -0.9500 c3         1 EM4      -0.075400
     16 C50         25.4330    -2.9880    -1.3880 c3         1 EM4      -0.075400
     17 C49         24.3090    -2.2640    -0.6560 c3         1 EM4      -0.074400
     18 C48         22.9200    -2.7090    -1.0960 c3         1 EM4      -0.074400
     19 C47         21.7960    -1.9860    -0.3640 c3         1 EM4      -0.074400
     20 C46         20.4070    -2.4310    -0.8030 c3         1 EM4      -0.074400
     21 C45         19.2840    -1.7090    -0.0700 c3         1 EM4      -0.074400
     22 C44         17.8930    -2.1520    -0.5060 c3         1 EM4      -0.074400
     23 C39         16.7730    -1.4290     0.2300 c3         1 EM4      -0.074400
     24 C38         15.3800    -1.8690    -0.2040 c3         1 EM4      -0.074400
     25 C37         14.2640    -1.1420     0.5350 c3         1 EM4      -0.074400
     26 C36         12.8680    -1.5780     0.1050 c3         1 EM4      -0.074400
     27 C35         11.7580    -0.8440     0.8460 c3         1 EM4      -0.074400
     28 C43         10.3580    -1.2680     0.4190 c3         1 EM4      -0.073400
     29 C42          9.2570    -0.5220     1.1620 c3         1 EM4      -0.074400
     30 C41          7.8510    -0.9220     0.7340 c3         1 EM4      -0.073400
     31 C40          6.7650    -0.1540     1.4760 c3         1 EM4      -0.075400
     32 C20         -2.9040     2.7430     1.9260 c          1 EM4       0.611100
     33 O           -2.7950     3.1540     3.0740 o          1 EM4      -0.612100
     34 N2          -3.9400     3.0690     1.1320 ns         1 EM4      -0.499900
     35 C27         -5.0060     3.9580     1.5280 c3         1 EM4       0.090700
     36 C28         -4.6490     5.4000     1.1900 c3         1 EM4       0.145600
     37 C31         -3.8300     6.5860    -0.6900 c6         1 EM4       0.361300
     38 O9          -2.4540     6.3850    -0.5170 os         1 EM4      -0.448000
     39 C30         -1.9270     5.2660    -1.2120 c6         1 EM4       0.173300
     40 C29         -0.4620     5.1390    -0.8580 c3         1 EM4       0.170600
     41 O8          -0.3580     4.8460     0.5150 oh         1 EM4      -0.712000
     42 C34         -2.1560     5.3820    -2.7120 c6         1 EM4       0.147300
     43 C33         -3.6470     5.5830    -2.9730 c6         1 EM4       0.139300
     44 C32         -4.1500     6.7800    -2.1750 c6         1 EM4       0.114300
     45 C26         -6.3620     3.5300     0.9310 c3         1 EM4       0.127300
     46 C25         -6.6800     2.0370     1.1790 c3         1 EM4       0.137300
     47 O2          -5.9460     1.2290     0.2770 oh         1 EM4      -0.655000
     48 C24         -8.1730     1.7340     1.1050 c3         1 EM4      -0.109400
     49 C23         -8.4890     0.2600     1.3330 c3         1 EM4      -0.065400
     50 C22         -9.9930     0.0110     1.3490 c3         1 EM4      -0.158400
     51 C21        -10.3430    -1.4410     1.5960 c          1 EM4       0.597100
     52 N1         -11.3320    -1.9340     0.8370 ns         1 EM4      -0.510900
     53 C19        -11.8410    -3.2840     0.9720 c3         1 EM4       0.106000
     54 C18        -13.0010    -3.5150     0.0180 c3         1 EM4      -0.095400
     55 C17        -13.5820    -4.9160     0.1480 c3         1 EM4      -0.072400
     56 C16        -14.7460    -5.1590    -0.8040 c3         1 EM4      -0.076400
     57 C15        -15.3490    -6.5510    -0.6660 c3         1 EM4      -0.073400
     58 C14        -16.5210    -6.7790    -1.6230 c3         1 EM4      -0.030100
     59 C13        -17.1200    -8.1490    -1.4760 ca         1 EM4      -0.078300
     60 C12        -16.6910    -9.2090    -2.2730 ca         1 EM4      -0.107500
     61 C11        -17.2170   -10.4840    -2.1120 ca         1 EM4      -0.109000
     62 C10        -18.1850   -10.7220    -1.1440 ca         1 EM4      -0.111000
     63 C9         -18.6210    -9.6740    -0.3430 ca         1 EM4      -0.109000
     64 C8         -18.0910    -8.4020    -0.5090 ca         1 EM4      -0.107500
     65 H1          -1.7130     2.1410     0.2610 hc         1 EM4       0.054700
     66 H2          -2.3570     0.8180     1.2010 hc         1 EM4       0.054700
     67 H3          -0.1850     2.7230     2.1960 hc         1 EM4       0.056200
     68 H4          -0.7450     1.2930     3.0340 hc         1 EM4       0.056200
     69 H5           0.1060    -0.1500     1.2040 hc         1 EM4       0.033700
     70 H6           0.5530     1.2630     0.2710 hc         1 EM4       0.033700
     71 H7           2.1620     1.9560     2.0230 hc         1 EM4       0.038700
     72 H8           1.7420     0.5610     2.9930 hc         1 EM4       0.038700
     73 H9           2.6130    -0.9670     1.2640 hc         1 EM4       0.036200
     74 H10          2.8600     0.3660     0.1580 hc         1 EM4       0.036200
     75 H11          4.5300     1.3710     1.6990 hc         1 EM4       0.037700
     76 H12          4.3120     0.0520     2.8280 hc         1 EM4       0.037700
     77 H13          5.1690    -1.5670     1.1580 hc         1 EM4       0.037200
     78 H14          5.2630    -0.3060    -0.0530 hc         1 EM4       0.037200
     79 H15         -7.4230     4.3070     2.3680 ho         1 EM4       0.440000
     80 H16         -5.7810     7.8320    -2.2310 ho         1 EM4       0.511000
     81 H17         -4.7240     6.0540    -4.5180 ho         1 EM4       0.468000
     82 H18         -1.6560     6.5980    -4.1310 ho         1 EM4       0.521000
     83 H19         27.8730    -3.1090    -2.7630 hc         1 EM4       0.031367
     84 H20         28.9220    -2.9460    -1.3580 hc         1 EM4       0.031367
     85 H21         27.8780    -4.3540    -1.5200 hc         1 EM4       0.031367
     86 H22         26.9300    -2.7050     0.1280 hc         1 EM4       0.036700
     87 H23         26.9250    -1.4670    -1.1070 hc         1 EM4       0.036700
     88 H24         25.3260    -2.8290    -2.4670 hc         1 EM4       0.036700
     89 H25         25.3310    -4.0680    -1.2310 hc         1 EM4       0.036700
     90 H26         24.4160    -2.4240     0.4220 hc         1 EM4       0.036700
     91 H27         24.4100    -1.1840    -0.8130 hc         1 EM4       0.036700
     92 H28         22.8130    -2.5490    -2.1750 hc         1 EM4       0.036700
     93 H29         22.8190    -3.7890    -0.9400 hc         1 EM4       0.036700
     94 H30         21.9040    -2.1460     0.7140 hc         1 EM4       0.036700
     95 H31         21.8970    -0.9060    -0.5210 hc         1 EM4       0.036700
     96 H32         20.2990    -2.2710    -1.8810 hc         1 EM4       0.036700
     97 H33         20.3060    -3.5110    -0.6470 hc         1 EM4       0.036700
     98 H34         19.3930    -1.8690     1.0090 hc         1 EM4       0.036700
     99 H35         19.3840    -0.6290    -0.2250 hc         1 EM4       0.036700
    100 H36         17.7830    -1.9910    -1.5840 hc         1 EM4       0.036700
    101 H37         17.7920    -3.2320    -0.3500 hc         1 EM4       0.036700
    102 H38         16.8840    -1.5890     1.3080 hc         1 EM4       0.037200
    103 H39         16.8750    -0.3490     0.0740 hc         1 EM4       0.037200
    104 H40         15.2680    -1.7080    -1.2820 hc         1 EM4       0.037200
    105 H41         15.2770    -2.9490    -0.0470 hc         1 EM4       0.037200
    106 H42         14.3770    -1.3030     1.6130 hc         1 EM4       0.037200
    107 H43         14.3690    -0.0630     0.3790 hc         1 EM4       0.037200
    108 H44         12.7550    -1.4170    -0.9730 hc         1 EM4       0.037200
    109 H45         12.7600    -2.6570     0.2630 hc         1 EM4       0.037200
    110 H46         11.8720    -1.0060     1.9240 hc         1 EM4       0.037200
    111 H47         11.8700     0.2350     0.6900 hc         1 EM4       0.037200
    112 H48         10.2430    -1.1070    -0.6580 hc         1 EM4       0.037200
    113 H49         10.2410    -2.3460     0.5790 hc         1 EM4       0.037200
    114 H50          9.3690    -0.6900     2.2400 hc         1 EM4       0.037200
    115 H51          9.3850     0.5550     1.0100 hc         1 EM4       0.037200
    116 H52          7.7400    -0.7570    -0.3440 hc         1 EM4       0.037200
    117 H53          7.7130    -1.9980     0.8910 hc         1 EM4       0.037200
    118 H54          6.9290     0.9210     1.3430 hc         1 EM4       0.037200
    119 H55          6.8590    -0.3410     2.5520 hc         1 EM4       0.037200
    120 H56         -3.9690     2.6790     0.2050 hn         1 EM4       0.320500
    121 H57         -5.0970     3.8970     2.6180 h1         1 EM4       0.075700
    122 H58         -3.6880     5.6340     1.6570 h1         1 EM4       0.053700
    123 H59         -5.3940     6.0890     1.6020 h1         1 EM4       0.053700
    124 H60         -4.0570     7.5070    -0.1340 h2         1 EM4       0.069700
    125 H61         -2.4260     4.3450    -0.8860 h1         1 EM4       0.054700
    126 H62         -0.0380     4.3380    -1.4780 h1         1 EM4       0.035700
    127 H63          0.0710     6.0620    -1.1150 h1         1 EM4       0.035700
    128 H64          0.5710     4.7040     0.7190 ho         1 EM4       0.505000
    129 H65         -1.8500     4.4290    -3.1700 h1         1 EM4       0.048700
    130 H66         -4.1740     4.6800    -2.6320 h1         1 EM4       0.062700
    131 H67         -3.6010     7.6700    -2.5050 h1         1 EM4       0.064700
    132 H68         -6.3470     3.6810    -0.1540 h1         1 EM4       0.087700
    133 H69         -6.3210     1.7570     2.1780 h1         1 EM4       0.080700
    134 H70         -6.3510     1.3100    -0.5940 ho         1 EM4       0.439000
    135 H71         -8.7000     2.3260     1.8570 hc         1 EM4       0.048700
    136 H72         -8.5690     2.0530     0.1330 hc         1 EM4       0.048700
    137 H73         -8.0300    -0.3520     0.5540 hc         1 EM4       0.061200
    138 H74         -8.0560    -0.0640     2.2830 hc         1 EM4       0.061200
    139 H75        -10.4520     0.5990     2.1510 hc         1 EM4       0.053700
    140 H76        -10.4430     0.3650     0.4170 hc         1 EM4       0.053700
    141 H77        -11.7590    -1.3350     0.1500 hn         1 EM4       0.310500
    142 H78        -11.0450    -4.0060     0.7700 h1         1 EM4       0.052200
    143 H79        -12.1690    -3.4560     2.0010 h1         1 EM4       0.052200
    144 H80        -13.7850    -2.7760     0.2140 hc         1 EM4       0.041700
    145 H81        -12.6670    -3.3510    -1.0120 hc         1 EM4       0.041700
    146 H82        -12.7980    -5.6580    -0.0380 hc         1 EM4       0.044200
    147 H83        -13.9160    -5.0770     1.1790 hc         1 EM4       0.044200
    148 H84        -15.5240    -4.4080    -0.6260 hc         1 EM4       0.037700
    149 H85        -14.4100    -5.0100    -1.8360 hc         1 EM4       0.037700
    150 H86        -14.5790    -7.3080    -0.8500 hc         1 EM4       0.044200
    151 H87        -15.6870    -6.7030     0.3640 hc         1 EM4       0.044200
    152 H88        -17.2860    -6.0200    -1.4390 hc         1 EM4       0.045200
    153 H89        -16.1780    -6.6330    -2.6510 hc         1 EM4       0.045200
    154 H90        -15.9390    -9.0330    -3.0340 ha         1 EM4       0.109500
    155 H91        -16.8730   -11.2920    -2.7450 ha         1 EM4       0.111000
    156 H92        -18.6000   -11.7140    -1.0200 ha         1 EM4       0.112000
    157 H93        -19.3770    -9.8470     0.4130 ha         1 EM4       0.111000
    158 H94        -18.4410    -7.5910     0.1200 ha         1 EM4       0.109500
@<TRIPOS>BOND
     1     1     2 1   
     2     1    32 1   
     3     1    65 1   
     4     1    66 1   
     5     2     3 1   
     6     2    67 1   
     7     2    68 1   
     8     3     4 1   
     9     3    69 1   
    10     3    70 1   
    11     4     5 1   
    12     4    71 1   
    13     4    72 1   
    14     5     6 1   
    15     5    73 1   
    16     5    74 1   
    17     6     7 1   
    18     6    75 1   
    19     6    76 1   
    20     7    31 1   
    21     7    77 1   
    22     7    78 1   
    23     8    51 2   
    24     9    45 1   
    25     9    79 1   
    26    10    36 1   
    27    10    37 1   
    28    11    44 1   
    29    11    80 1   
    30    12    43 1   
    31    12    81 1   
    32    13    42 1   
    33    13    82 1   
    34    14    15 1   
    35    14    83 1   
    36    14    84 1   
    37    14    85 1   
    38    15    16 1   
    39    15    86 1   
    40    15    87 1   
    41    16    17 1   
    42    16    88 1   
    43    16    89 1   
    44    17    18 1   
    45    17    90 1   
    46    17    91 1   
    47    18    19 1   
    48    18    92 1   
    49    18    93 1   
    50    19    20 1   
    51    19    94 1   
    52    19    95 1   
    53    20    21 1   
    54    20    96 1   
    55    20    97 1   
    56    21    22 1   
    57    21    98 1   
    58    21    99 1   
    59    22    23 1   
    60    22   100 1   
    61    22   101 1   
    62    23    24 1   
    63    23   102 1   
    64    23   103 1   
    65    24    25 1   
    66    24   104 1   
    67    24   105 1   
    68    25    26 1   
    69    25   106 1   
    70    25   107 1   
    71    26    27 1   
    72    26   108 1   
    73    26   109 1   
    74    27    28 1   
    75    27   110 1   
    76    27   111 1   
    77    28    29 1   
    78    28   112 1   
    79    28   113 1   
    80    29    30 1   
    81    29   114 1   
    82    29   115 1   
    83    30    31 1   
    84    30   116 1   
    85    30   117 1   
    86    31   118 1   
    87    31   119 1   
    88    32    33 2   
    89    32    34 1   
    90    34    35 1   
    91    34   120 1   
    92    35    36 1   
    93    35    45 1   
    94    35   121 1   
    95    36   122 1   
    96    36   123 1   
    97    37    38 1   
    98    37    44 1   
    99    37   124 1   
   100    38    39 1   
   101    39    40 1   
   102    39    42 1   
   103    39   125 1   
   104    40    41 1   
   105    40   126 1   
   106    40   127 1   
   107    41   128 1   
   108    42    43 1   
   109    42   129 1   
   110    43    44 1   
   111    43   130 1   
   112    44   131 1   
   113    45    46 1   
   114    45   132 1   
   115    46    47 1   
   116    46    48 1   
   117    46   133 1   
   118    47   134 1   
   119    48    49 1   
   120    48   135 1   
   121    48   136 1   
   122    49    50 1   
   123    49   137 1   
   124    49   138 1   
   125    50    51 1   
   126    50   139 1   
   127    50   140 1   
   128    51    52 1   
   129    52    53 1   
   130    52   141 1   
   131    53    54 1   
   132    53   142 1   
   133    53   143 1   
   134    54    55 1   
   135    54   144 1   
   136    54   145 1   
   137    55    56 1   
   138    55   146 1   
   139    55   147 1   
   140    56    57 1   
   141    56   148 1   
   142    56   149 1   
   143    57    58 1   
   144    57   150 1   
   145    57   151 1   
   146    58    59 1   
   147    58   152 1   
   148    58   153 1   
   149    59    60 ar  
   150    59    64 ar  
   151    60    61 ar  
   152    60   154 1   
   153    61    62 ar  
   154    61   155 1   
   155    62    63 ar  
   156    62   156 1   
   157    63    64 ar  
   158    63   157 1   
   159    64   158 1   
@<TRIPOS>SUBSTRUCTURE
     1 EM4         1 TEMP              0 ****  ****    0 ROOT
