@<TRIPOS>MOLECULE
EM4
  158   159     1     0     0
SMALL
No Charge or Current Charge


@<TRIPOS>ATOM
      1 C1          -2.3290     1.9330     2.9250 c3         1 EM4      -0.148400
      2 C2          -0.9850     2.3680     2.2960 c3         1 EM4      -0.063400
      3 C3           0.1050     1.2780     2.3480 c3         1 EM4      -0.077400
      4 C4           1.4370     1.7420     1.7180 c3         1 EM4      -0.074400
      5 C5           2.5490     0.6730     1.7890 c3         1 EM4      -0.074400
      6 C6           3.8850     1.1570     1.1850 c3         1 EM4      -0.074400
      7 C7           5.0100     0.1030     1.2760 c3         1 EM4      -0.073400
      8 O1         -11.2970    -1.6040     1.2370 o          1 EM4      -0.605100
      9 O3          -7.5230     4.4250     0.6500 oh         1 EM4      -0.644000
     10 O4          -3.8300     4.9500    -0.0660 os         1 EM4      -0.479000
     11 O5          -3.2120     4.7250    -2.8520 oh         1 EM4      -0.712000
     12 O6          -0.3840     4.1680    -2.6260 oh         1 EM4      -0.674000
     13 O7           0.4520     6.3740    -1.1330 oh         1 EM4      -0.715000
     14 C52         27.6940    -3.8320    -1.3680 c3         1 EM4      -0.088100
     15 C51         26.5180    -2.8600    -1.5900 c3         1 EM4      -0.075400
     16 C50         25.1560    -3.4540    -1.1710 c3         1 EM4      -0.075400
     17 C49         23.9780    -2.4790    -1.3910 c3         1 EM4      -0.074400
     18 C48         22.6160    -3.0690    -0.9660 c3         1 EM4      -0.074400
     19 C47         21.4410    -2.0900    -1.1790 c3         1 EM4      -0.074400
     20 C46         20.0790    -2.6750    -0.7470 c3         1 EM4      -0.074400
     21 C45         18.9070    -1.6900    -0.9530 c3         1 EM4      -0.074400
     22 C44         17.5450    -2.2690    -0.5110 c3         1 EM4      -0.074400
     23 C39         16.3770    -1.2760    -0.7030 c3         1 EM4      -0.074400
     24 C38         15.0160    -1.8470    -0.2480 c3         1 EM4      -0.074400
     25 C37         13.8540    -0.8450    -0.4230 c3         1 EM4      -0.074400
     26 C36         12.4950    -1.4040     0.0540 c3         1 EM4      -0.074400
     27 C35         11.3400    -0.3910    -0.1010 c3         1 EM4      -0.074400
     28 C43          9.9850    -0.9350     0.4040 c3         1 EM4      -0.073400
     29 C42          8.8380     0.0910     0.2730 c3         1 EM4      -0.074400
     30 C41          7.4890    -0.4340     0.8120 c3         1 EM4      -0.073400
     31 C40          6.3530     0.6060     0.7030 c3         1 EM4      -0.075400
     32 C20         -3.3380     3.0840     2.8900 c          1 EM4       0.611100
     33 O           -3.2990     4.0170     3.6790 o          1 EM4      -0.612100
     34 N2          -4.3050     2.9790     1.9200 ns         1 EM4      -0.499900
     35 C27         -5.3210     3.9970     1.6080 c3         1 EM4       0.090700
     36 C28         -4.6630     5.2980     1.0610 c3         1 EM4       0.145600
     37 C31         -3.1400     6.0310    -0.7260 c6         1 EM4       0.361300
     38 O9          -2.2430     6.6940     0.1940 os         1 EM4      -0.448000
     39 C30         -1.1700     5.8570     0.7070 c6         1 EM4       0.173300
     40 C29         -0.3550     6.6700     1.7670 c3         1 EM4       0.170600
     41 O8          -1.1590     7.1650     2.8580 oh         1 EM4      -0.712000
     42 C34         -0.2680     5.3240    -0.4550 c6         1 EM4       0.147300
     43 C33         -1.1660     4.5820    -1.4890 c6         1 EM4       0.139300
     44 C32         -2.3530     5.4810    -1.9630 c6         1 EM4       0.114300
     45 C26         -6.4430     3.4660     0.6480 c3         1 EM4       0.127300
     46 C25         -6.9880     2.0260     0.9830 c3         1 EM4       0.137300
     47 O2          -5.9660     1.0390     0.7530 oh         1 EM4      -0.655000
     48 C24         -8.2400     1.6170     0.1550 c3         1 EM4      -0.109400
     49 C23         -8.8390     0.2410     0.5430 c3         1 EM4      -0.065400
     50 C22        -10.1230    -0.0990    -0.2510 c3         1 EM4      -0.158400
     51 C21        -10.7120    -1.4480     0.1750 c          1 EM4       0.597100
     52 N1         -10.5610    -2.4650    -0.7420 ns         1 EM4      -0.510900
     53 C19        -11.0910    -3.8200    -0.5820 c3         1 EM4       0.106000
     54 C18        -12.5990    -3.8930    -0.8980 c3         1 EM4      -0.095400
     55 C17        -13.1780    -5.3170    -0.7540 c3         1 EM4      -0.072400
     56 C16        -14.6890    -5.3850    -1.0640 c3         1 EM4      -0.076400
     57 C15        -15.2730    -6.8080    -0.9230 c3         1 EM4      -0.073400
     58 C14        -16.7830    -6.8750    -1.2320 c3         1 EM4      -0.030100
     59 C13        -17.3360    -8.2870    -1.0890 ca         1 EM4      -0.078300
     60 C12        -17.3470    -9.1610    -2.1930 ca         1 EM4      -0.107500
     61 C11        -17.8540   -10.4650    -2.0610 ca         1 EM4      -0.109000
     62 C10        -18.3520   -10.9040    -0.8220 ca         1 EM4      -0.111000
     63 C9         -18.3410   -10.0380     0.2840 ca         1 EM4      -0.109000
     64 C8         -17.8330    -8.7330     0.1510 ca         1 EM4      -0.107500
     65 H1          -2.7140     1.0760     2.3580 hc         1 EM4       0.054700
     66 H2          -2.1520     1.6470     3.9690 hc         1 EM4       0.054700
     67 H3          -1.1570     2.6500     1.2500 hc         1 EM4       0.056200
     68 H4          -0.6190     3.2640     2.8140 hc         1 EM4       0.056200
     69 H5           0.2800     0.9920     3.3930 hc         1 EM4       0.033700
     70 H6          -0.2520     0.3820     1.8250 hc         1 EM4       0.033700
     71 H7           1.2640     2.0130     0.6690 hc         1 EM4       0.038700
     72 H8           1.7790     2.6500     2.2300 hc         1 EM4       0.038700
     73 H9           2.7090     0.3910     2.8370 hc         1 EM4       0.036200
     74 H10          2.2180    -0.2300     1.2610 hc         1 EM4       0.036200
     75 H11          3.7280     1.4270     0.1330 hc         1 EM4       0.037700
     76 H12          4.2040     2.0680     1.7050 hc         1 EM4       0.037700
     77 H13          5.1520    -0.1810     2.3270 hc         1 EM4       0.037200
     78 H14          4.7030    -0.8030     0.7380 hc         1 EM4       0.037200
     79 H15         -7.9880     4.3540     1.5120 ho         1 EM4       0.440000
     80 H16         -3.8600     4.2620    -2.2690 ho         1 EM4       0.511000
     81 H17         -1.0440     3.9500    -3.3250 ho         1 EM4       0.468000
     82 H18          0.6770     5.9810    -2.0120 ho         1 EM4       0.521000
     83 H19         27.5540    -4.7500    -1.9510 hc         1 EM4       0.031367
     84 H20         28.6370    -3.3670    -1.6790 hc         1 EM4       0.031367
     85 H21         27.7780    -4.1030    -0.3090 hc         1 EM4       0.031367
     86 H22         26.7040    -1.9400    -1.0230 hc         1 EM4       0.036700
     87 H23         26.4830    -2.5800    -2.6510 hc         1 EM4       0.036700
     88 H24         24.9730    -4.3740    -1.7410 hc         1 EM4       0.036700
     89 H25         25.1970    -3.7360    -0.1120 hc         1 EM4       0.036700
     90 H26         24.1640    -1.5570    -0.8240 hc         1 EM4       0.036700
     91 H27         23.9350    -2.1990    -2.4510 hc         1 EM4       0.036700
     92 H28         22.4270    -3.9880    -1.5350 hc         1 EM4       0.036700
     93 H29         22.6610    -3.3520     0.0940 hc         1 EM4       0.036700
     94 H30         21.6330    -1.1690    -0.6130 hc         1 EM4       0.036700
     95 H31         21.3930    -1.8100    -2.2390 hc         1 EM4       0.036700
     96 H32         19.8830    -3.5920    -1.3160 hc         1 EM4       0.036700
     97 H33         20.1280    -2.9590     0.3120 hc         1 EM4       0.036700
     98 H34         19.1070    -0.7710    -0.3880 hc         1 EM4       0.036700
     99 H35         18.8530    -1.4100    -2.0120 hc         1 EM4       0.036700
    100 H36         17.3390    -3.1830    -1.0820 hc         1 EM4       0.036700
    101 H37         17.6020    -2.5570     0.5460 hc         1 EM4       0.036700
    102 H38         16.5890    -0.3590    -0.1390 hc         1 EM4       0.037200
    103 H39         16.3140    -0.9940    -1.7620 hc         1 EM4       0.037200
    104 H40         14.7970    -2.7570    -0.8200 hc         1 EM4       0.037200
    105 H41         15.0830    -2.1390     0.8070 hc         1 EM4       0.037200
    106 H42         14.0820     0.0700     0.1380 hc         1 EM4       0.037200
    107 H43         13.7770    -0.5620    -1.4800 hc         1 EM4       0.037200
    108 H44         12.2580    -2.3120    -0.5150 hc         1 EM4       0.037200
    109 H45         12.5770    -1.6980     1.1080 hc         1 EM4       0.037200
    110 H46         11.5880     0.5230     0.4530 hc         1 EM4       0.037200
    111 H47         11.2450    -0.1100    -1.1570 hc         1 EM4       0.037200
    112 H48          9.7260    -1.8410    -0.1590 hc         1 EM4       0.037200
    113 H49         10.0860    -1.2290     1.4560 hc         1 EM4       0.037200
    114 H50          9.1100     1.0040     0.8170 hc         1 EM4       0.037200
    115 H51          8.7220     0.3690    -0.7820 hc         1 EM4       0.037200
    116 H52          7.2060    -1.3390     0.2610 hc         1 EM4       0.037200
    117 H53          7.6110    -0.7240     1.8640 hc         1 EM4       0.037200
    118 H54          6.2150     0.8810    -0.3510 hc         1 EM4       0.037200
    119 H55          6.6500     1.5190     1.2350 hc         1 EM4       0.037200
    120 H56         -4.3180     2.1230     1.3750 hn         1 EM4       0.320500
    121 H57         -5.8050     4.2550     2.5590 h1         1 EM4       0.075700
    122 H58         -4.0620     5.7610     1.8540 h1         1 EM4       0.053700
    123 H59         -5.4370     6.0190     0.7690 h1         1 EM4       0.053700
    124 H60         -3.8830     6.7610    -1.0830 h2         1 EM4       0.069700
    125 H61         -1.6170     5.0000     1.2290 h1         1 EM4       0.054700
    126 H62          0.4400     6.0180     2.1550 h1         1 EM4       0.035700
    127 H63          0.1360     7.5100     1.2560 h1         1 EM4       0.035700
    128 H64         -0.5730     7.7270     3.4160 ho         1 EM4       0.505000
    129 H65          0.4430     4.5980    -0.0340 h1         1 EM4       0.048700
    130 H66         -1.5880     3.6960    -0.9890 h1         1 EM4       0.062700
    131 H67         -1.9390     6.3480    -2.4990 h1         1 EM4       0.064700
    132 H68         -6.0120     3.4130    -0.3620 h1         1 EM4       0.087700
    133 H69         -7.2700     2.0210     2.0470 h1         1 EM4       0.080700
    134 H70         -6.1120     0.6760    -0.1470 ho         1 EM4       0.439000
    135 H71         -9.0260     2.3690     0.2910 hc         1 EM4       0.048700
    136 H72         -7.9890     1.6190    -0.9130 hc         1 EM4       0.048700
    137 H73         -8.0980    -0.5520     0.3760 hc         1 EM4       0.061200
    138 H74         -9.0680     0.2390     1.6170 hc         1 EM4       0.061200
    139 H75        -10.8680     0.6820    -0.0560 hc         1 EM4       0.053700
    140 H76         -9.8770    -0.1160    -1.3200 hc         1 EM4       0.053700
    141 H77        -10.0650    -2.2380    -1.5960 hn         1 EM4       0.310500
    142 H78        -10.5430    -4.4910    -1.2580 h1         1 EM4       0.052200
    143 H79        -10.9110    -4.1580     0.4470 h1         1 EM4       0.052200
    144 H80        -13.1420    -3.2150    -0.2280 hc         1 EM4       0.041700
    145 H81        -12.7670    -3.5360    -1.9220 hc         1 EM4       0.041700
    146 H82        -12.6390    -5.9950    -1.4280 hc         1 EM4       0.044200
    147 H83        -13.0020    -5.6750     0.2680 hc         1 EM4       0.044200
    148 H84        -15.2260    -4.7070    -0.3890 hc         1 EM4       0.037700
    149 H85        -14.8630    -5.0250    -2.0860 hc         1 EM4       0.037700
    150 H86        -14.7380    -7.4880    -1.5980 hc         1 EM4       0.044200
    151 H87        -15.0990    -7.1710     0.0980 hc         1 EM4       0.044200
    152 H88        -17.3190    -6.1920    -0.5610 hc         1 EM4       0.045200
    153 H89        -16.9590    -6.5040    -2.2490 hc         1 EM4       0.045200
    154 H90        -16.9620    -8.8300    -3.1550 ha         1 EM4       0.109500
    155 H91        -17.8610   -11.1360    -2.9180 ha         1 EM4       0.111000
    156 H92        -18.7440   -11.9140    -0.7190 ha         1 EM4       0.112000
    157 H93        -18.7240   -10.3770     1.2440 ha         1 EM4       0.111000
    158 H94        -17.8260    -8.0690     1.0130 ha         1 EM4       0.109500
@<TRIPOS>BOND
     1     1     2 1   
     2     1    32 1   
     3     1    65 1   
     4     1    66 1   
     5     2     3 1   
     6     2    67 1   
     7     2    68 1   
     8     3     4 1   
     9     3    69 1   
    10     3    70 1   
    11     4     5 1   
    12     4    71 1   
    13     4    72 1   
    14     5     6 1   
    15     5    73 1   
    16     5    74 1   
    17     6     7 1   
    18     6    75 1   
    19     6    76 1   
    20     7    31 1   
    21     7    77 1   
    22     7    78 1   
    23     8    51 2   
    24     9    45 1   
    25     9    79 1   
    26    10    36 1   
    27    10    37 1   
    28    11    44 1   
    29    11    80 1   
    30    12    43 1   
    31    12    81 1   
    32    13    42 1   
    33    13    82 1   
    34    14    15 1   
    35    14    83 1   
    36    14    84 1   
    37    14    85 1   
    38    15    16 1   
    39    15    86 1   
    40    15    87 1   
    41    16    17 1   
    42    16    88 1   
    43    16    89 1   
    44    17    18 1   
    45    17    90 1   
    46    17    91 1   
    47    18    19 1   
    48    18    92 1   
    49    18    93 1   
    50    19    20 1   
    51    19    94 1   
    52    19    95 1   
    53    20    21 1   
    54    20    96 1   
    55    20    97 1   
    56    21    22 1   
    57    21    98 1   
    58    21    99 1   
    59    22    23 1   
    60    22   100 1   
    61    22   101 1   
    62    23    24 1   
    63    23   102 1   
    64    23   103 1   
    65    24    25 1   
    66    24   104 1   
    67    24   105 1   
    68    25    26 1   
    69    25   106 1   
    70    25   107 1   
    71    26    27 1   
    72    26   108 1   
    73    26   109 1   
    74    27    28 1   
    75    27   110 1   
    76    27   111 1   
    77    28    29 1   
    78    28   112 1   
    79    28   113 1   
    80    29    30 1   
    81    29   114 1   
    82    29   115 1   
    83    30    31 1   
    84    30   116 1   
    85    30   117 1   
    86    31   118 1   
    87    31   119 1   
    88    32    33 2   
    89    32    34 1   
    90    34    35 1   
    91    34   120 1   
    92    35    36 1   
    93    35    45 1   
    94    35   121 1   
    95    36   122 1   
    96    36   123 1   
    97    37    38 1   
    98    37    44 1   
    99    37   124 1   
   100    38    39 1   
   101    39    40 1   
   102    39    42 1   
   103    39   125 1   
   104    40    41 1   
   105    40   126 1   
   106    40   127 1   
   107    41   128 1   
   108    42    43 1   
   109    42   129 1   
   110    43    44 1   
   111    43   130 1   
   112    44   131 1   
   113    45    46 1   
   114    45   132 1   
   115    46    47 1   
   116    46    48 1   
   117    46   133 1   
   118    47   134 1   
   119    48    49 1   
   120    48   135 1   
   121    48   136 1   
   122    49    50 1   
   123    49   137 1   
   124    49   138 1   
   125    50    51 1   
   126    50   139 1   
   127    50   140 1   
   128    51    52 1   
   129    52    53 1   
   130    52   141 1   
   131    53    54 1   
   132    53   142 1   
   133    53   143 1   
   134    54    55 1   
   135    54   144 1   
   136    54   145 1   
   137    55    56 1   
   138    55   146 1   
   139    55   147 1   
   140    56    57 1   
   141    56   148 1   
   142    56   149 1   
   143    57    58 1   
   144    57   150 1   
   145    57   151 1   
   146    58    59 1   
   147    58   152 1   
   148    58   153 1   
   149    59    60 ar  
   150    59    64 ar  
   151    60    61 ar  
   152    60   154 1   
   153    61    62 ar  
   154    61   155 1   
   155    62    63 ar  
   156    62   156 1   
   157    63    64 ar  
   158    63   157 1   
   159    64   158 1   
@<TRIPOS>SUBSTRUCTURE
     1 EM4         1 TEMP              0 ****  ****    0 ROOT
