@<TRIPOS>MOLECULE
EM5
   46    47     1     0     0
SMALL
No Charge or Current Charge


@<TRIPOS>ATOM
      1 C6           0.4890    -2.1890    -0.7510 ca         1 EM5       0.291000
      2 C7          -0.7320    -1.5750    -1.0310 ca         1 EM5      -0.247000
      3 C8          -0.8590    -0.1840    -1.0110 ca         1 EM5       0.456000
      4 C9           0.2500     0.6320    -0.7120 ca         1 EM5      -0.280600
      5 C10          1.4880     0.0060    -0.4340 ca         1 EM5       0.069000
      6 C12          0.1300     2.1380    -0.6900 c          1 EM5       0.628700
      7 C2           1.6120    -1.3970    -0.4540 ca         1 EM5      -0.366500
      8 N5           2.9700    -2.8590     1.3280 n8         1 EM5      -1.011100
      9 C15          1.2200     4.2890     0.0580 c3         1 EM5       0.098000
     10 C16          1.9130     4.7240     1.3710 c3         1 EM5       0.142600
     11 O13         -0.7990     2.7390    -1.2130 o          1 EM5      -0.649100
     12 N14          1.1460     2.8280    -0.0700 ns         1 EM5      -0.490900
     13 O17          3.1770     4.0550     1.5230 oh         1 EM5      -0.668000
     14 S1           3.2060    -2.1260    -0.1040 sy         1 EM5       1.157600
     15 O4           3.4960    -3.2330    -1.0100 o          1 EM5      -0.551500
     16 O3           4.1960    -1.0930     0.1890 o          1 EM5      -0.551500
     17 Cl1          0.5240    -3.9540    -0.7770 cl         1 EM5      -0.163000
     18 N18         -2.1020     0.3700    -1.2820 nu         1 EM5      -0.943200
     19 C19         -3.3370    -0.0410    -0.6040 c6         1 EM5       0.231500
     20 C23         -3.2320     0.2490     0.9170 c6         1 EM5      -0.093400
     21 C24         -4.5560    -0.0900     1.6470 c6         1 EM5      -0.072400
     22 C22         -5.7520     0.6680     1.0190 c6         1 EM5      -0.078400
     23 C21         -5.8570     0.3870    -0.5000 c6         1 EM5      -0.072400
     24 C20         -4.5300     0.7270    -1.2250 c6         1 EM5      -0.093400
     25 H1          -1.5890    -2.1930    -1.2700 ha         1 EM5       0.135000
     26 H2           2.3710     0.6060    -0.2220 ha         1 EM5       0.140000
     27 H3           3.8030    -2.5550     1.8270 hn         1 EM5       0.475500
     28 H4           3.2080    -3.8160     1.0770 hn         1 EM5       0.475500
     29 H5           0.2100     4.7190     0.0330 h1         1 EM5       0.062700
     30 H6           1.7800     4.6890    -0.7980 h1         1 EM5       0.062700
     31 H7           2.0500     5.8130     1.3590 h1         1 EM5       0.030700
     32 H8           1.2540     4.4790     2.2150 h1         1 EM5       0.030700
     33 H9           1.8750     2.2880     0.3760 hn         1 EM5       0.335500
     34 H10          3.5840     4.3930     2.3520 ho         1 EM5       0.451000
     35 H11         -2.0010     1.3850    -1.4170 hn         1 EM5       0.529000
     36 H12         -3.5140    -1.1190    -0.7460 h1         1 EM5       0.061700
     37 H13         -2.4140    -0.3380     1.3580 hc         1 EM5       0.051450
     38 H14         -2.9830     1.3060     1.0810 hc         1 EM5       0.051450
     39 H15         -4.7380    -1.1730     1.6000 hc         1 EM5       0.043950
     40 H16         -4.4710     0.1650     2.7120 hc         1 EM5       0.043950
     41 H17         -6.6850     0.3730     1.5190 hc         1 EM5       0.043200
     42 H18         -5.6360     1.7480     1.1890 hc         1 EM5       0.043200
     43 H19         -6.1090    -0.6700    -0.6650 hc         1 EM5       0.043950
     44 H20         -6.6790     0.9750    -0.9320 hc         1 EM5       0.043950
     45 H21         -4.3510     1.8100    -1.1680 hc         1 EM5       0.051450
     46 H22         -4.6190     0.4790    -2.2910 hc         1 EM5       0.051450
@<TRIPOS>BOND
     1     1     2 ar  
     2     1     7 ar  
     3     1    17 1   
     4     2     3 ar  
     5     2    25 1   
     6     3     4 ar  
     7     3    18 1   
     8     4     5 ar  
     9     4     6 1   
    10     5     7 ar  
    11     5    26 1   
    12     6    11 2   
    13     6    12 1   
    14     7    14 1   
    15     8    14 1   
    16     8    27 1   
    17     8    28 1   
    18     9    10 1   
    19     9    12 1   
    20     9    29 1   
    21     9    30 1   
    22    10    13 1   
    23    10    31 1   
    24    10    32 1   
    25    12    33 1   
    26    13    34 1   
    27    14    15 2   
    28    14    16 2   
    29    18    19 1   
    30    18    35 1   
    31    19    20 1   
    32    19    24 1   
    33    19    36 1   
    34    20    21 1   
    35    20    37 1   
    36    20    38 1   
    37    21    22 1   
    38    21    39 1   
    39    21    40 1   
    40    22    23 1   
    41    22    41 1   
    42    22    42 1   
    43    23    24 1   
    44    23    43 1   
    45    23    44 1   
    46    24    45 1   
    47    24    46 1   
@<TRIPOS>SUBSTRUCTURE
     1 EM5         1 TEMP              0 ****  ****    0 ROOT
