@<TRIPOS>MOLECULE
EM5
   46    47     1     0     0
SMALL
abcg2


@<TRIPOS>ATOM
      1 C6           0.4010    -1.8800    -0.2360 ca         1 EM5       0.291000
      2 C7          -0.8200    -1.2530    -0.2290 ca         1 EM5      -0.247000
      3 C8          -0.9320     0.1410    -0.0260 ca         1 EM5       0.456000
      4 C9           0.2740     0.8800     0.1540 ca         1 EM5      -0.280600
      5 C10          1.4840     0.2080     0.1640 ca         1 EM5       0.069000
      6 C12          0.2410     2.3560     0.3580 c          1 EM5       0.628700
      7 C2           1.5830    -1.1630    -0.0260 ca         1 EM5      -0.366500
      8 N5           3.1000    -2.9280     1.2500 n8         1 EM5      -1.011100
      9 C15          1.4970     4.4580     0.1340 c3         1 EM5       0.098000
     10 C16          2.9470     4.7870     0.4140 c3         1 EM5       0.142600
     11 O13         -0.7270     2.9140     0.8740 o          1 EM5      -0.649100
     12 N14          1.3250     3.0330    -0.0470 ns         1 EM5      -0.490900
     13 O17          3.7220     4.3620    -0.6860 oh         1 EM5      -0.668000
     14 S1           3.1800    -1.9010    -0.0360 sy         1 EM5       1.157600
     15 O4           3.3460    -2.7350    -1.2160 o          1 EM5      -0.551500
     16 O3           4.1410    -0.8250     0.1760 o          1 EM5      -0.551500
     17 CL1          0.4210    -3.5840    -0.4870 cl         1 EM5      -0.163000
     18 N18         -2.1280     0.7450    -0.0420 nu         1 EM5      -0.943200
     19 C19         -3.4130     0.1030    -0.2320 c6         1 EM5       0.231500
     20 C23         -3.9670    -0.4810     1.0700 c6         1 EM5      -0.093400
     21 C24         -5.3410    -1.1080     0.8550 c6         1 EM5      -0.072400
     22 C22         -6.3170    -0.1040     0.2500 c6         1 EM5      -0.078400
     23 C21         -5.7640     0.4830    -1.0430 c6         1 EM5      -0.072400
     24 C20         -4.3910     1.1120    -0.8290 c6         1 EM5      -0.093400
     25 H1          -1.7060    -1.8540    -0.3720 ha         1 EM5       0.135000
     26 H2           2.3930     0.7630     0.3510 ha         1 EM5       0.140000
     27 H3           3.2210    -2.4580     2.1400 hn         1 EM5       0.475500
     28 H4           3.7470    -3.7040     1.1570 hn         1 EM5       0.475500
     29 H5           0.8930     4.7880     0.9770 h1         1 EM5       0.062700
     30 H6           1.1490     5.0030    -0.7490 h1         1 EM5       0.062700
     31 H7           3.0300     5.8680     0.5790 h1         1 EM5       0.030700
     32 H8           3.2550     4.2900     1.3410 h1         1 EM5       0.030700
     33 H9           2.0090     2.5710    -0.6250 hn         1 EM5       0.335500
     34 H10          4.6490     4.3870    -0.4340 ho         1 EM5       0.451000
     35 H11         -2.1330     1.7100     0.2590 hn         1 EM5       0.529000
     36 H12         -3.2900    -0.7040    -0.9630 h1         1 EM5       0.061700
     37 H13         -3.2730    -1.2170     1.4840 hc         1 EM5       0.051450
     38 H14         -4.0440     0.3260     1.8070 hc         1 EM5       0.051450
     39 H15         -5.2470    -1.9720     0.1880 hc         1 EM5       0.043950
     40 H16         -5.7240    -1.4900     1.8030 hc         1 EM5       0.043950
     41 H17         -7.2830    -0.5800     0.0670 hc         1 EM5       0.043200
     42 H18         -6.4960     0.7040     0.9680 hc         1 EM5       0.043200
     43 H19         -5.6810    -0.3080    -1.7960 hc         1 EM5       0.043950
     44 H20         -6.4490     1.2300    -1.4510 hc         1 EM5       0.043950
     45 H21         -4.4810     1.9680    -0.1500 hc         1 EM5       0.051450
     46 H22         -3.9940     1.4930    -1.7730 hc         1 EM5       0.051450
@<TRIPOS>BOND
     1     1     2 ar  
     2     1     7 ar  
     3     1    17 1   
     4     2     3 ar  
     5     2    25 1   
     6     3     4 ar  
     7     3    18 1   
     8     4     5 ar  
     9     4     6 1   
    10     5     7 ar  
    11     5    26 1   
    12     6    11 2   
    13     6    12 1   
    14     7    14 1   
    15     8    14 1   
    16     8    27 1   
    17     8    28 1   
    18     9    10 1   
    19     9    12 1   
    20     9    29 1   
    21     9    30 1   
    22    10    13 1   
    23    10    31 1   
    24    10    32 1   
    25    12    33 1   
    26    13    34 1   
    27    14    15 2   
    28    14    16 2   
    29    18    19 1   
    30    18    35 1   
    31    19    20 1   
    32    19    24 1   
    33    19    36 1   
    34    20    21 1   
    35    20    37 1   
    36    20    38 1   
    37    21    22 1   
    38    21    39 1   
    39    21    40 1   
    40    22    23 1   
    41    22    41 1   
    42    22    42 1   
    43    23    24 1   
    44    23    43 1   
    45    23    44 1   
    46    24    45 1   
    47    24    46 1   
@<TRIPOS>SUBSTRUCTURE
     1 EM5         1 TEMP              0 ****  ****    0 ROOT
