@<TRIPOS>MOLECULE
EM6
   25    26     1     0     0
SMALL
No Charge or Current Charge


@<TRIPOS>ATOM
      1 C01         -3.9050     0.0390     1.0270 c3         1 EM6      -0.088100
      2 C02         -3.2220    -0.0990    -0.3470 c3         1 EM6      -0.006200
      3 C03         -1.7090    -0.1910    -0.2410 cc         1 EM6      -0.302400
      4 C04         -1.0060    -1.4060    -0.1930 cd         1 EM6       0.228400
      5 C05         -1.6760    -2.7570    -0.2350 c3         1 EM6      -0.054900
      6 N06          0.3990    -1.4270    -0.0980 nd         1 EM6      -0.343600
      7 C07          0.9790    -0.2380    -0.0550 cc         1 EM6       0.105000
      8 C08          2.3510     0.1320     0.0380 cc         1 EM6      -0.167000
      9 C09          3.4040    -0.8210     0.1050 cg         1 EM6       0.369000
     10 N10          4.2880    -1.5810     0.1610 n1         1 EM6      -0.447000
     11 C11          2.5090     1.5130     0.0540 cd         1 EM6      -0.007000
     12 N12          1.2230     2.0650    -0.0300 na         1 EM6      -0.187000
     13 N13          0.3510     0.9500    -0.0920 n          1 EM6      -0.053800
     14 C14         -1.0170     1.1230    -0.1870 c          1 EM6       0.539000
     15 O15         -1.5580     2.2240    -0.2180 o          1 EM6      -0.559000
     16 H01         -3.5720     0.9500     1.5370 hc         1 EM6       0.035367
     17 H01A        -4.9940     0.0900     0.9090 hc         1 EM6       0.035367
     18 H01B        -3.6690    -0.8210     1.6650 hc         1 EM6       0.035367
     19 H02         -3.6300    -0.9820    -0.8540 hc         1 EM6       0.049700
     20 H02A        -3.5190     0.7490    -0.9770 hc         1 EM6       0.049700
     21 H05         -2.1390    -2.9330    -1.2120 hc         1 EM6       0.059700
     22 H05A        -0.9620    -3.5710    -0.0570 hc         1 EM6       0.059700
     23 H05B        -2.4560    -2.8340     0.5300 hc         1 EM6       0.059700
     24 H11          3.4070     2.1200     0.1180 h4         1 EM6       0.176000
     25 HN12         0.8470     3.0100    -0.0450 hn         1 EM6       0.414000
@<TRIPOS>BOND
     1     1     2 1   
     2     1    16 1   
     3     1    17 1   
     4     1    18 1   
     5     2     3 1   
     6     2    19 1   
     7     2    20 1   
     8     3     4 2   
     9     3    14 1   
    10     4     5 1   
    11     4     6 1   
    12     5    21 1   
    13     5    22 1   
    14     5    23 1   
    15     6     7 2   
    16     7     8 1   
    17     7    13 1   
    18     8     9 1   
    19     8    11 2   
    20     9    10 3   
    21    11    12 1   
    22    11    24 1   
    23    12    13 1   
    24    12    25 1   
    25    13    14 1   
    26    14    15 2   
@<TRIPOS>SUBSTRUCTURE
     1 EM6         1 TEMP              0 ****  ****    0 ROOT
