@<TRIPOS>MOLECULE
EM6
   25    26     1     0     0
SMALL
abcg2


@<TRIPOS>ATOM
      1 C01         -3.8790     0.0370     1.0290 c3         1 EM6      -0.088100
      2 C02         -3.2180    -0.1430    -0.3370 c3         1 EM6      -0.006200
      3 C03         -1.7180    -0.1650    -0.2570 cc         1 EM6      -0.302400
      4 C04         -0.9820    -1.3390    -0.2000 cd         1 EM6       0.228400
      5 C05         -1.6630    -2.6730    -0.2530 c3         1 EM6      -0.054900
      6 N06          0.3640    -1.3910    -0.1030 nd         1 EM6      -0.343600
      7 C07          0.9810    -0.2430    -0.0560 cc         1 EM6       0.105000
      8 C08          2.3640     0.0910     0.0480 cc         1 EM6      -0.167000
      9 C09          3.4280    -0.8240     0.1270 cg         1 EM6       0.369000
     10 N10          4.2900    -1.5860     0.2000 n1         1 EM6      -0.447000
     11 C11          2.4340     1.4680     0.0580 cd         1 EM6      -0.007000
     12 N12          1.2060     1.9600    -0.0320 na         1 EM6      -0.187000
     13 N13          0.3250     0.9460    -0.1020 n          1 EM6      -0.053800
     14 C14         -1.0620     1.0990    -0.2000 c          1 EM6       0.539000
     15 O15         -1.5340     2.2270    -0.2270 o          1 EM6      -0.559000
     16 H01         -3.5680     0.9710     1.4970 hc         1 EM6       0.035367
     17 H01A        -4.9650     0.0580     0.9340 hc         1 EM6       0.035367
     18 H01B        -3.6210    -0.7780     1.7060 hc         1 EM6       0.035367
     19 H02         -3.5830    -1.0610    -0.8000 hc         1 EM6       0.049700
     20 H02A        -3.5330     0.6670    -0.9980 hc         1 EM6       0.049700
     21 H05         -2.1690    -2.8170    -1.2090 hc         1 EM6       0.059700
     22 H05A        -0.9360    -3.4720    -0.1290 hc         1 EM6       0.059700
     23 H05B        -2.4190    -2.7700     0.5270 hc         1 EM6       0.059700
     24 H11          3.2900     2.1190     0.1260 h4         1 EM6       0.176000
     25 HN12         0.8930     2.9210    -0.0470 hn         1 EM6       0.414000
@<TRIPOS>BOND
     1     1     2 1   
     2     1    16 1   
     3     1    17 1   
     4     1    18 1   
     5     2     3 1   
     6     2    19 1   
     7     2    20 1   
     8     3     4 2   
     9     3    14 1   
    10     4     5 1   
    11     4     6 1   
    12     5    21 1   
    13     5    22 1   
    14     5    23 1   
    15     6     7 2   
    16     7     8 1   
    17     7    13 1   
    18     8     9 1   
    19     8    11 2   
    20     9    10 3   
    21    11    12 1   
    22    11    24 1   
    23    12    13 1   
    24    12    25 1   
    25    13    14 1   
    26    14    15 2   
@<TRIPOS>SUBSTRUCTURE
     1 EM6         1 TEMP              0 ****  ****    0 ROOT
