@<TRIPOS>MOLECULE
EM7
   34    36     1     0     0
SMALL
No Charge or Current Charge


@<TRIPOS>ATOM
      1 C13          5.5340     2.4850     0.4810 c3         1 EM7       0.096300
      2 N7           4.3820     1.6090     0.2580 ns         1 EM7      -0.479900
      3 C12          4.4410     0.2340     0.1570 c          1 EM7       0.523600
      4 O1           5.5120    -0.3590     0.2610 o          1 EM7      -0.644100
      5 C5           3.1030    -0.4570    -0.0680 ca         1 EM7       0.159500
      6 N6           1.9530     0.3010    -0.0780 nb         1 EM7      -0.616000
      7 C4           3.0430    -1.8770    -0.2470 ca         1 EM7       0.639900
      8 N8           4.0730    -2.7440    -0.2790 nv         1 EM7      -1.052900
      9 N5           1.9070    -2.5580    -0.4170 nb         1 EM7      -0.746000
     10 C3           0.7760    -1.7960    -0.4210 ca         1 EM7       0.399900
     11 C2           0.7780    -0.3670    -0.2530 cp         1 EM7       0.261500
     12 C7          -0.4810     0.4650    -0.2660 cp         1 EM7      -0.114500
     13 C8          -1.7550    -0.1130    -0.0100 ca         1 EM7      -0.057000
     14 C6          -0.4380     1.8590    -0.5320 ca         1 EM7      -0.065000
     15 C11         -1.6080     2.6320    -0.5480 ca         1 EM7      -0.114000
     16 C10         -2.8530     2.0380    -0.2960 ca         1 EM7      -0.094000
     17 C9          -2.9420     0.6570    -0.0220 ca         1 EM7      -0.143500
     18 C1          -4.2410     0.0200     0.2500 cc         1 EM7       0.459000
     19 N2          -4.4610    -1.2510     0.5200 nd         1 EM7      -0.390000
     20 N3          -5.8180    -1.3870     0.7030 nd         1 EM7      -0.039000
     21 N4          -6.4410    -0.2490     0.5570 nc         1 EM7      -0.203800
     22 N1          -5.4560     0.6410     0.2720 na         1 EM7      -0.212700
     23 H131         6.0150     2.2270     1.4330 h1         1 EM7       0.042033
     24 H132         6.2550     2.3620    -0.3380 h1         1 EM7       0.042033
     25 H133         5.2000     3.5290     0.5150 h1         1 EM7       0.042033
     26 H7           3.4550     2.0170     0.1730 hn         1 EM7       0.341500
     27 H81N         4.9640    -2.3910     0.0670 hn         1 EM7       0.522000
     28 H82N         3.8430    -3.7100    -0.0810 hn         1 EM7       0.522000
     29 H3          -0.1540    -2.3380    -0.5790 h4         1 EM7       0.035100
     30 H8          -1.8270    -1.1730     0.2190 ha         1 EM7       0.141000
     31 H6           0.5110     2.3500    -0.7370 ha         1 EM7       0.129000
     32 H11         -1.5490     3.6980    -0.7580 ha         1 EM7       0.120000
     33 H10         -3.7430     2.6630    -0.3150 ha         1 EM7       0.107000
     34 H1          -5.6420     1.6210     0.1060 hn         1 EM7       0.387000
@<TRIPOS>BOND
     1     1     2 1   
     2     1    23 1   
     3     1    24 1   
     4     1    25 1   
     5     2     3 1   
     6     2    26 1   
     7     3     4 2   
     8     3     5 1   
     9     5     6 ar  
    10     5     7 ar  
    11     6    11 ar  
    12     7     8 1   
    13     7     9 ar  
    14     8    27 1   
    15     8    28 1   
    16     9    10 ar  
    17    10    11 ar  
    18    10    29 1   
    19    11    12 1   
    20    12    13 ar  
    21    12    14 ar  
    22    13    17 ar  
    23    13    30 1   
    24    14    15 ar  
    25    14    31 1   
    26    15    16 ar  
    27    15    32 1   
    28    16    17 ar  
    29    16    33 1   
    30    17    18 1   
    31    18    19 2   
    32    18    22 1   
    33    19    20 1   
    34    20    21 2   
    35    21    22 1   
    36    22    34 1   
@<TRIPOS>SUBSTRUCTURE
     1 EM7         1 TEMP              0 ****  ****    0 ROOT
