@<TRIPOS>MOLECULE
EM7
   34    36     1     0     0
SMALL
bcc


@<TRIPOS>ATOM
      1 C13          5.3150     2.4550     0.4380 c3         1 EM7       0.096300
      2 N7           4.1870     1.5740     0.2620 ns         1 EM7      -0.546900
      3 C12          4.3210     0.2520     0.1550 c          1 EM7       0.590600
      4 O1           5.4120    -0.3160     0.2010 o          1 EM7      -0.644100
      5 C5           3.0460    -0.5030    -0.0280 ca         1 EM7       0.159500
      6 N6           1.9320     0.1970    -0.0660 nb         1 EM7      -0.616000
      7 C4           3.0100    -1.9200    -0.1570 ca         1 EM7       0.639900
      8 N8           4.0900    -2.7000    -0.1060 nv         1 EM7      -0.942500
      9 N5           1.8280    -2.5220    -0.3470 nb         1 EM7      -0.746000
     10 C3           0.7400    -1.7870    -0.3830 ca         1 EM7       0.399900
     11 C2           0.7590    -0.3980    -0.2270 cp         1 EM7       0.261500
     12 C7          -0.4530     0.4370    -0.2580 cp         1 EM7      -0.114500
     13 C8          -1.7100    -0.1100    -0.0210 ca         1 EM7      -0.075000
     14 C6          -0.3580     1.8060    -0.5180 ca         1 EM7      -0.083000
     15 C11         -1.4930     2.6000    -0.5470 ca         1 EM7      -0.132000
     16 C10         -2.7440     2.0490    -0.3180 ca         1 EM7      -0.112000
     17 C9          -2.8520     0.6870    -0.0510 ca         1 EM7      -0.143500
     18 C1          -4.1450     0.0650     0.2040 cc         1 EM7       0.459000
     19 N2          -4.3880    -1.2240     0.3080 nd         1 EM7      -0.390000
     20 N3          -5.6920    -1.3450     0.5380 nd         1 EM7      -0.039000
     21 N4          -6.2610    -0.2060     0.5800 nc         1 EM7      -0.203800
     22 N1          -5.3130     0.6910     0.3740 na         1 EM7      -0.162400
     23 H131         5.8560     2.2400     1.3590 h1         1 EM7       0.042033
     24 H132         6.0150     2.3830    -0.3950 h1         1 EM7       0.042033
     25 H133         4.9460     3.4750     0.4880 h1         1 EM7       0.042033
     26 H7           3.2560     1.9580     0.2170 hn         1 EM7       0.341500
     27 H81N         5.0030    -2.2960     0.0180 hn         1 EM7       0.466800
     28 H82N         3.9830    -3.6960    -0.1970 hn         1 EM7       0.466800
     29 H3          -0.1880    -2.3200    -0.5620 h4         1 EM7       0.035100
     30 H8          -1.8190    -1.1610     0.2090 ha         1 EM7       0.159000
     31 H6           0.6090     2.2510    -0.7100 ha         1 EM7       0.147000
     32 H11         -1.4030     3.6580    -0.7530 ha         1 EM7       0.138000
     33 H10         -3.6160     2.6880    -0.3570 ha         1 EM7       0.125000
     34 H1          -5.5370     1.6770     0.3760 hn         1 EM7       0.336700
@<TRIPOS>BOND
     1     1     2 1   
     2     1    23 1   
     3     1    24 1   
     4     1    25 1   
     5     2     3 1   
     6     2    26 1   
     7     3     4 2   
     8     3     5 1   
     9     5     6 ar  
    10     5     7 ar  
    11     6    11 ar  
    12     7     8 1   
    13     7     9 ar  
    14     8    27 1   
    15     8    28 1   
    16     9    10 ar  
    17    10    11 ar  
    18    10    29 1   
    19    11    12 1   
    20    12    13 ar  
    21    12    14 ar  
    22    13    17 ar  
    23    13    30 1   
    24    14    15 ar  
    25    14    31 1   
    26    15    16 ar  
    27    15    32 1   
    28    16    17 ar  
    29    16    33 1   
    30    17    18 1   
    31    18    19 2   
    32    18    22 1   
    33    19    20 1   
    34    20    21 2   
    35    21    22 1   
    36    22    34 1   
@<TRIPOS>SUBSTRUCTURE
     1 EM7         1 TEMP              0 ****  ****    0 ROOT
