@<TRIPOS>MOLECULE
EM8
   45    47     1     0     0
SMALL
abcg2


@<TRIPOS>ATOM
      1 C1           5.3010     0.0250     0.2510 c3         1 EM8      -0.073100
      2 C2           4.0110     0.7150    -0.1960 c3         1 EM8      -0.010400
      3 C3           4.1660     2.2350    -0.2200 c3         1 EM8      -0.203400
      4 C7           2.8560     0.2870     0.6790 ca         1 EM8      -0.027300
      5 C8           2.7950     0.6440     2.0270 ca         1 EM8      -0.094000
      6 C9           1.7350     0.2420     2.8240 ca         1 EM8      -0.112000
      7 C10          0.7160    -0.5410     2.2990 ca         1 EM8      -0.118000
      8 C11          0.7720    -0.9000     0.9620 ca         1 EM8      -0.022200
      9 C12          1.8230    -0.4820     0.1570 ca         1 EM8      -0.103000
     10 C14         -1.5580    -1.2040     0.2260 ca         1 EM8      -0.029200
     11 C15         -2.1240     0.0080     0.6170 ca         1 EM8      -0.088000
     12 C16         -3.4490     0.1930     0.2950 ca         1 EM8       0.093100
     13 C19         -2.2850    -2.1770    -0.4890 ca         1 EM8      -0.102800
     14 C20         -1.3830    -3.2440    -0.7590 cc         1 EM8      -0.226200
     15 C21         -0.1800    -2.8980    -0.2120 cd         1 EM8      -0.108300
     16 C22          1.0510    -3.7190    -0.1110 c          1 EM8       0.633300
     17 C4           5.1660     2.7700    -1.2630 c          1 EM8       0.717000
     18 O6           5.7350     3.8460    -0.9850 o          1 EM8      -0.737500
     19 N13         -0.2810    -1.6660     0.4000 na         1 EM8       0.056500
     20 C17         -4.2150    -0.7640    -0.3840 ca         1 EM8      -0.139000
     21 C18         -3.6350    -1.9500    -0.7790 ca         1 EM8      -0.056000
     22 O23          1.7950    -3.6390     0.8540 o          1 EM8      -0.575100
     23 N24          1.2380    -4.5600    -1.1380 nt         1 EM8      -0.605000
     24 C26         -4.0860     2.4010    -0.1310 c3         1 EM8       0.512000
     25 F27         -4.6920     3.4100     0.4760 f          1 EM8      -0.111000
     26 F28         -2.8610     2.7980    -0.4820 f          1 EM8      -0.111000
     27 F29         -4.7440     2.1390    -1.2620 f          1 EM8      -0.111000
     28 H1           5.5890     0.3340     1.2580 hc         1 EM8       0.029033
     29 H2           5.1900    -1.0600     0.2560 hc         1 EM8       0.029033
     30 H3           6.1210     0.2740    -0.4230 hc         1 EM8       0.029033
     31 H4           3.7930     0.3910    -1.2170 hc         1 EM8       0.071700
     32 H5           3.1910     2.6870    -0.4440 hc         1 EM8       0.022200
     33 H6           4.4420     2.6040     0.7720 hc         1 EM8       0.022200
     34 H7           3.5820     1.2460     2.4630 ha         1 EM8       0.125000
     35 H8           1.7040     0.5300     3.8670 ha         1 EM8       0.106000
     36 H9          -0.1030    -0.8760     2.9220 ha         1 EM8       0.113000
     37 H10          1.8360    -0.7600    -0.8910 ha         1 EM8       0.123000
     38 H11         -1.5660     0.7600     1.1600 ha         1 EM8       0.151000
     39 H12         -1.6120    -4.1720    -1.2600 ha         1 EM8       0.201000
     40 H14         -5.2600    -0.5720    -0.5860 ha         1 EM8       0.125000
     41 H15         -4.2180    -2.6900    -1.3120 ha         1 EM8       0.115000
     42 H16          0.6710    -4.5270    -1.9680 hn         1 EM8       0.317000
     43 H17          2.0230    -5.1910    -1.1360 hn         1 EM8       0.317000
     44 O5           5.3000     2.1160    -2.3170 o          1 EM8      -0.737500
     45 O25         -4.0740     1.3650     0.7160 os         1 EM8      -0.406100
@<TRIPOS>BOND
     1     1     2 1   
     2     1    28 1   
     3     1    29 1   
     4     1    30 1   
     5     2     3 1   
     6     2     4 1   
     7     2    31 1   
     8     3    17 1   
     9     3    32 1   
    10     3    33 1   
    11     4     5 ar  
    12     4     9 ar  
    13     5     6 ar  
    14     5    34 1   
    15     6     7 ar  
    16     6    35 1   
    17     7     8 ar  
    18     7    36 1   
    19     8     9 ar  
    20     8    19 1   
    21     9    37 1   
    22    10    11 ar  
    23    10    13 ar  
    24    10    19 1   
    25    11    12 ar  
    26    11    38 1   
    27    12    20 ar  
    28    12    45 1   
    29    13    14 1   
    30    13    21 ar  
    31    14    15 2   
    32    14    39 1   
    33    15    16 1   
    34    15    19 1   
    35    16    22 2   
    36    16    23 1   
    37    17    18 1   
    38    17    44 1   
    39    20    21 ar  
    40    20    40 1   
    41    21    41 1   
    42    23    42 1   
    43    23    43 1   
    44    24    25 1   
    45    24    26 1   
    46    24    27 1   
    47    24    45 1   
@<TRIPOS>SUBSTRUCTURE
     1 EM8         1 TEMP              0 ****  ****    0 ROOT
