@<TRIPOS>MOLECULE
EM8
   45    47     1     0     0
SMALL
No Charge or Current Charge


@<TRIPOS>ATOM
      1 C1           5.1840     0.1350    -0.2000 c3         1 EM8      -0.073100
      2 C2           3.7880     0.8020    -0.2400 c3         1 EM8      -0.010400
      3 C3           3.8410     2.3490    -0.0860 c3         1 EM8      -0.203400
      4 C7           2.8590     0.1770     0.8060 ca         1 EM8      -0.027300
      5 C8           3.1500     0.2750     2.1830 ca         1 EM8      -0.094000
      6 C9           2.2920    -0.2990     3.1360 ca         1 EM8      -0.112000
      7 C10          1.1360    -0.9800     2.7220 ca         1 EM8      -0.118000
      8 C11          0.8370    -1.0930     1.3520 ca         1 EM8      -0.022200
      9 C12          1.6960    -0.5080     0.4000 ca         1 EM8      -0.103000
     10 C14         -1.3860    -1.1100     0.3340 ca         1 EM8      -0.029200
     11 C15         -1.9410     0.1400     0.6420 ca         1 EM8      -0.088000
     12 C16         -3.0370     0.5990    -0.1180 ca         1 EM8       0.093100
     13 C19         -1.8850    -1.8770    -0.6770 ca         1 EM8      -0.102800
     14 C20         -1.0890    -3.0660    -0.7480 cc         1 EM8      -0.226200
     15 C21         -0.0950    -2.9630     0.2350 cd         1 EM8      -0.108300
     16 C22          0.9850    -3.9720     0.4700 c          1 EM8       0.633300
     17 C4           4.5570     3.0130    -1.2770 c          1 EM8       0.717000
     18 O6           5.7530     3.2460    -1.1810 o          1 EM8      -0.737500
     19 N13         -0.3230    -1.7520     0.9480 na         1 EM8       0.056500
     20 C17         -3.5510    -0.2090    -1.1710 ca         1 EM8      -0.139000
     21 C18         -2.9690    -1.4630    -1.4590 ca         1 EM8      -0.056000
     22 O23          1.8180    -3.9100     1.3590 o          1 EM8      -0.575100
     23 N24          1.0030    -5.0250    -0.3780 nt         1 EM8      -0.605000
     24 C26         -4.6760     2.4510    -0.4610 c3         1 EM8       0.512000
     25 F27         -4.9580     3.6550     0.0840 f          1 EM8      -0.111000
     26 F28         -4.4240     2.6640    -1.7730 f          1 EM8      -0.111000
     27 F29         -5.8020     1.7050    -0.3680 f          1 EM8      -0.111000
     28 H1           5.7120     0.3750     0.7300 hc         1 EM8       0.029033
     29 H2           5.0870    -0.9550    -0.2670 hc         1 EM8       0.029033
     30 H3           5.8030     0.4660    -1.0420 hc         1 EM8       0.029033
     31 H4           3.3740     0.5950    -1.2360 hc         1 EM8       0.071700
     32 H5           2.7910     2.6670    -0.0700 hc         1 EM8       0.022200
     33 H6           4.3750     2.5600     0.8480 hc         1 EM8       0.022200
     34 H7           4.0420     0.7990     2.5170 ha         1 EM8       0.125000
     35 H8           2.5230    -0.2150     4.1950 ha         1 EM8       0.106000
     36 H9           0.4730    -1.4210     3.4630 ha         1 EM8       0.113000
     37 H10          1.4540    -0.5870    -0.6570 ha         1 EM8       0.123000
     38 H11         -1.5370     0.7440     1.4500 ha         1 EM8       0.151000
     39 H12         -1.2140    -3.8770    -1.4620 ha         1 EM8       0.201000
     40 H14         -4.3930     0.1130    -1.7770 ha         1 EM8       0.125000
     41 H15         -3.3490    -2.0860    -2.2650 ha         1 EM8       0.115000
     42 H16          0.3230    -5.0910    -1.1180 hn         1 EM8       0.317000
     43 H17          1.7080    -5.7370    -0.2620 hn         1 EM8       0.317000
     44 O5           3.9010     3.2570    -2.2780 o          1 EM8      -0.737500
     45 O25         -3.5600     1.8360     0.2150 os         1 EM8      -0.406100
@<TRIPOS>BOND
     1     1     2 1   
     2     1    28 1   
     3     1    29 1   
     4     1    30 1   
     5     2     3 1   
     6     2     4 1   
     7     2    31 1   
     8     3    17 1   
     9     3    32 1   
    10     3    33 1   
    11     4     5 ar  
    12     4     9 ar  
    13     5     6 ar  
    14     5    34 1   
    15     6     7 ar  
    16     6    35 1   
    17     7     8 ar  
    18     7    36 1   
    19     8     9 ar  
    20     8    19 1   
    21     9    37 1   
    22    10    11 ar  
    23    10    13 ar  
    24    10    19 1   
    25    11    12 ar  
    26    11    38 1   
    27    12    20 ar  
    28    12    45 1   
    29    13    14 1   
    30    13    21 ar  
    31    14    15 2   
    32    14    39 1   
    33    15    16 1   
    34    15    19 1   
    35    16    22 2   
    36    16    23 1   
    37    17    18 1   
    38    17    44 1   
    39    20    21 ar  
    40    20    40 1   
    41    21    41 1   
    42    23    42 1   
    43    23    43 1   
    44    24    25 1   
    45    24    26 1   
    46    24    27 1   
    47    24    45 1   
@<TRIPOS>SUBSTRUCTURE
     1 EM8         1 TEMP              0 ****  ****    0 ROOT
