@<TRIPOS>MOLECULE
EM9
   93    96     1     0     0
SMALL
bcc


@<TRIPOS>ATOM
      1 CAL         -2.9270    -0.6050     0.1370 c3         1 EM9      -0.073400
      2 CAK         -4.1420    -0.6740     1.0670 c6         1 EM9      -0.048700
      3 CAJ         -5.4370    -0.1470     0.4480 c6         1 EM9      -0.041700
      4 CBD         -4.4200    -2.0880     1.5680 c6         1 EM9      -0.032100
      5 CBE         -5.0820    -2.9700     0.5390 ca         1 EM9      -0.029300
      6 CBF         -5.0110    -4.3510     0.7150 ca         1 EM9      -0.226000
      7 CBG         -5.6050    -5.2260    -0.1830 ca         1 EM9       0.138100
      8 OBH         -5.5560    -6.5690    -0.0380 oh         1 EM9      -0.495100
      9 CBI         -6.2750    -4.7090    -1.2890 ca         1 EM9      -0.163000
     10 CBJ         -6.3420    -3.3380    -1.4600 ca         1 EM9      -0.092000
     11 CBK         -5.7670    -2.4390    -0.5590 ca         1 EM9      -0.102300
     12 CBL         -5.8270    -0.9450    -0.8050 c6         1 EM9      -0.005400
     13 C49         -7.1820    -0.4660    -1.3460 c6         1 EM9      -0.071400
     14 CAB         -7.2110     1.0430    -1.6180 c6         1 EM9      -0.060400
     15 CAC         -6.7780     1.8410    -0.3910 c5         1 EM9      -0.041000
     16 CAD         -5.4070     1.3210     0.0640 c5         1 EM9      -0.068700
     17 C9          -7.8460     1.7680     0.7050 c3         1 EM9      -0.078100
     18 CAH         -6.4010     3.3000    -0.6650 c5         1 EM9       0.146100
     19 OAI         -7.5120     4.1250    -0.8640 oh         1 EM9      -0.583800
     20 CAF         -5.5480     3.6710     0.5640 c5         1 EM9       0.026700
     21 CL          -4.3130     4.9200     0.1250 cl         1 EM9      -0.223400
     22 CAE         -4.9230     2.3610     1.0740 c5         1 EM9      -0.070400
     23 H1          -2.9960    -1.3710    -0.6420 hc         1 EM9       0.045200
     24 H2          -2.9230     0.3550    -0.3910 hc         1 EM9       0.045200
     25 H4          -3.9160    -0.0550     1.9440 hc         1 EM9       0.047700
     26 H5          -6.2170    -0.2960     1.2080 hc         1 EM9       0.056700
     27 H6          -3.5040    -2.5690     1.9190 hc         1 EM9       0.050200
     28 H7          -5.0730    -2.0290     2.4470 hc         1 EM9       0.050200
     29 H8          -4.4780    -4.7450     1.5750 ha         1 EM9       0.127000
     30 H9          -5.0640    -6.7990     0.7580 ho         1 EM9       0.423000
     31 H10         -6.7340    -5.3750    -2.0090 ha         1 EM9       0.146000
     32 H11         -6.8580    -2.9650    -2.3360 ha         1 EM9       0.130000
     33 H12         -5.0770    -0.7150    -1.5770 hc         1 EM9       0.054700
     34 H13         -7.4260    -0.9810    -2.2770 hc         1 EM9       0.044700
     35 H14         -7.9670    -0.7410    -0.6350 hc         1 EM9       0.044700
     36 H15         -6.5260     1.2670    -2.4440 hc         1 EM9       0.046700
     37 H16         -8.2100     1.3380    -1.9500 hc         1 EM9       0.046700
     38 H17         -4.7450     1.4050    -0.8100 hc         1 EM9       0.052700
     39 H18         -8.7720     2.2320     0.3650 hc         1 EM9       0.039033
     40 H19         -8.0860     0.7410     0.9760 hc         1 EM9       0.039033
     41 H20         -7.5460     2.2730     1.6250 hc         1 EM9       0.039033
     42 H21         -5.7480     3.3080    -1.5500 h1         1 EM9       0.045700
     43 H22         -7.2080     4.9800    -1.1830 ho         1 EM9       0.414000
     44 H23         -6.1650     4.1490     1.3230 h1         1 EM9       0.084700
     45 H24         -5.2870     2.1470     2.0810 hc         1 EM9       0.061200
     46 H25         -3.8360     2.4120     1.1340 hc         1 EM9       0.061200
     47 C1          -1.6030    -0.7480     0.8800 c3         1 EM9      -0.075400
     48 C2          -0.3800    -0.6030    -0.0170 c3         1 EM9      -0.074400
     49 C3           0.9290    -0.7170     0.7540 c3         1 EM9      -0.074400
     50 C4           2.1690    -0.5380    -0.1110 c3         1 EM9      -0.074400
     51 C5           3.4670    -0.6360     0.6820 c3         1 EM9      -0.074400
     52 C6           4.7140    -0.4300    -0.1680 c3         1 EM9      -0.074400
     53 C7           6.0060    -0.5130     0.6340 c3         1 EM9      -0.077400
     54 C8           7.2480    -0.2720    -0.2160 c3         1 EM9      -0.065400
     55 C10          8.5240    -0.3490     0.6070 c3         1 EM9      -0.152400
     56 C11          9.7780    -0.0640    -0.1980 c          1 EM9       0.669100
     57 N1          10.9630    -0.2100     0.4320 n          1 EM9      -0.482800
     58 O1           9.7130     0.2860    -1.3720 o          1 EM9      -0.606100
     59 C13         12.1980     0.0310    -0.2960 c3         1 EM9       0.100000
     60 C14         12.6780     1.4730    -0.1850 c3         1 EM9      -0.098400
     61 C15         13.9700     1.7140    -0.9560 c3         1 EM9      -0.073400
     62 C16         14.4540     3.1540    -0.8470 c3         1 EM9      -0.088100
     63 C17         11.0980    -0.5980     1.8210 c3         1 EM9       0.092300
     64 H3          -1.5560     0.0090     1.6710 hc         1 EM9       0.035200
     65 H26         -1.5580    -1.7170     1.3890 hc         1 EM9       0.035200
     66 H27         -0.4090    -1.3620    -0.8060 hc         1 EM9       0.039200
     67 H28         -0.4170     0.3670    -0.5270 hc         1 EM9       0.039200
     68 H29          0.9390     0.0300     1.5550 hc         1 EM9       0.035700
     69 H30          0.9700    -1.6920     1.2530 hc         1 EM9       0.035700
     70 H31          2.1710    -1.2900    -0.9090 hc         1 EM9       0.038700
     71 H32          2.1250     0.4350    -0.6140 hc         1 EM9       0.038700
     72 H33          3.4530     0.1070     1.4880 hc         1 EM9       0.035700
     73 H34          3.5180    -1.6140     1.1740 hc         1 EM9       0.035700
     74 H35          4.7360    -1.1750    -0.9710 hc         1 EM9       0.040700
     75 H36          4.6590     0.5460    -0.6630 hc         1 EM9       0.040700
     76 H37          5.9750     0.2210     1.4470 hc         1 EM9       0.033700
     77 H38          6.0720    -1.4950     1.1160 hc         1 EM9       0.033700
     78 H39          7.2830    -1.0050    -1.0260 hc         1 EM9       0.055700
     79 H40          7.1730     0.7090    -0.6920 hc         1 EM9       0.055700
     80 H41          8.4690     0.3660     1.4350 hc         1 EM9       0.055200
     81 H42          8.6040    -1.3340     1.0790 hc         1 EM9       0.055200
     82 H43         12.9590    -0.6480     0.0990 h1         1 EM9       0.054700
     83 H44         12.0560    -0.2340    -1.3430 h1         1 EM9       0.054700
     84 H45         11.8960     2.1390    -0.5610 hc         1 EM9       0.046700
     85 H46         12.8280     1.7320     0.8680 hc         1 EM9       0.046700
     86 H47         14.7480     1.0370    -0.5890 hc         1 EM9       0.037700
     87 H48         13.8160     1.4580    -2.0090 hc         1 EM9       0.037700
     88 H49         15.3680     3.3140    -1.4200 hc         1 EM9       0.032367
     89 H50         13.7020     3.8510    -1.2220 hc         1 EM9       0.032367
     90 H51         14.6620     3.4210     0.1910 hc         1 EM9       0.032367
     91 H52         11.1910    -1.6810     1.9370 h1         1 EM9       0.037033
     92 H53         11.9940    -0.1380     2.2350 h1         1 EM9       0.037033
     93 H54         10.2600    -0.2580     2.4230 h1         1 EM9       0.037033
@<TRIPOS>BOND
     1     1     2 1   
     2     1    23 1   
     3     1    24 1   
     4     1    47 1   
     5     2     3 1   
     6     2     4 1   
     7     2    25 1   
     8     3    12 1   
     9     3    16 1   
    10     3    26 1   
    11     4     5 1   
    12     4    27 1   
    13     4    28 1   
    14     5     6 ar  
    15     5    11 ar  
    16     6     7 ar  
    17     6    29 1   
    18     7     8 1   
    19     7     9 ar  
    20     8    30 1   
    21     9    10 ar  
    22     9    31 1   
    23    10    11 ar  
    24    10    32 1   
    25    11    12 1   
    26    12    13 1   
    27    12    33 1   
    28    13    14 1   
    29    13    34 1   
    30    13    35 1   
    31    14    15 1   
    32    14    36 1   
    33    14    37 1   
    34    15    16 1   
    35    15    17 1   
    36    15    18 1   
    37    16    22 1   
    38    16    38 1   
    39    17    39 1   
    40    17    40 1   
    41    17    41 1   
    42    18    19 1   
    43    18    20 1   
    44    18    42 1   
    45    19    43 1   
    46    20    21 1   
    47    20    22 1   
    48    20    44 1   
    49    22    45 1   
    50    22    46 1   
    51    47    48 1   
    52    47    64 1   
    53    47    65 1   
    54    48    49 1   
    55    48    66 1   
    56    48    67 1   
    57    49    50 1   
    58    49    68 1   
    59    49    69 1   
    60    50    51 1   
    61    50    70 1   
    62    50    71 1   
    63    51    52 1   
    64    51    72 1   
    65    51    73 1   
    66    52    53 1   
    67    52    74 1   
    68    52    75 1   
    69    53    54 1   
    70    53    76 1   
    71    53    77 1   
    72    54    55 1   
    73    54    78 1   
    74    54    79 1   
    75    55    56 1   
    76    55    80 1   
    77    55    81 1   
    78    56    57 1   
    79    56    58 2   
    80    57    59 1   
    81    57    63 1   
    82    59    60 1   
    83    59    82 1   
    84    59    83 1   
    85    60    61 1   
    86    60    84 1   
    87    60    85 1   
    88    61    62 1   
    89    61    86 1   
    90    61    87 1   
    91    62    88 1   
    92    62    89 1   
    93    62    90 1   
    94    63    91 1   
    95    63    92 1   
    96    63    93 1   
@<TRIPOS>SUBSTRUCTURE
     1 EM9         1 TEMP              0 ****  ****    0 ROOT
