@<TRIPOS>MOLECULE
EM9
   93    96     1     0     0
SMALL
No Charge or Current Charge


@<TRIPOS>ATOM
      1 CAL         -2.9940    -0.4110     0.2840 c3         1 EM9      -0.073400
      2 CAK         -4.2850    -0.5680     1.1590 c6         1 EM9      -0.048700
      3 CAJ         -5.6030    -0.1390     0.4530 c6         1 EM9      -0.041700
      4 CBD         -4.5030    -2.0170     1.6650 c6         1 EM9      -0.032100
      5 CBE         -5.0300    -2.9780     0.5920 ca         1 EM9      -0.029300
      6 CBF         -4.8590    -4.3610     0.7960 ca         1 EM9      -0.208000
      7 CBG         -5.3160    -5.2820    -0.1550 ca         1 EM9       0.138100
      8 OBH         -5.1430    -6.6180     0.0480 oh         1 EM9      -0.534100
      9 CBI         -5.9410    -4.8290    -1.3210 ca         1 EM9      -0.145000
     10 CBJ         -6.1230    -3.4540    -1.5350 ca         1 EM9      -0.074000
     11 CBK         -5.6920    -2.5090    -0.5750 ca         1 EM9      -0.102300
     12 CBL         -5.8720    -0.9920    -0.8330 c6         1 EM9      -0.005400
     13 C49         -7.2530    -0.6020    -1.4670 c6         1 EM9      -0.071400
     14 CAB         -7.3720     0.9310    -1.7410 c6         1 EM9      -0.060400
     15 CAC         -7.0900     1.7790    -0.4650 c5         1 EM9      -0.041000
     16 CAD         -5.6920     1.3730     0.0950 c5         1 EM9      -0.068700
     17 C9          -8.3010     1.6030     0.5230 c3         1 EM9      -0.078100
     18 CAH         -6.7470     3.2810    -0.7440 c5         1 EM9       0.169300
     19 OAI         -7.8900     4.0680    -1.0970 oh         1 EM9      -0.646000
     20 CAF         -6.0870     3.7350     0.6110 c5         1 EM9       0.103300
     21 Cl          -4.8980     5.0980     0.4180 cl         1 EM9      -0.300000
     22 CAE         -5.4620     2.4270     1.2150 c5         1 EM9      -0.070400
     23 H1          -3.0270    -1.1090    -0.5610 hc         1 EM9       0.045200
     24 H2          -2.9630     0.5940    -0.1510 hc         1 EM9       0.045200
     25 H4          -4.1360     0.0720     2.0400 hc         1 EM9       0.047700
     26 H5          -6.4040    -0.3600     1.1710 hc         1 EM9       0.056700
     27 H6          -3.5820    -2.4140     2.1080 hc         1 EM9       0.050200
     28 H7          -5.2280    -1.9980     2.4900 hc         1 EM9       0.050200
     29 H8          -4.3660    -4.7140     1.6990 ha         1 EM9       0.109000
     30 H9          -4.6900    -6.7420     0.9080 ho         1 EM9       0.462000
     31 H10         -6.2820    -5.5440    -2.0660 ha         1 EM9       0.128000
     32 H11         -6.5920    -3.1350    -2.4610 ha         1 EM9       0.112000
     33 H12         -5.1110    -0.7200    -1.5780 hc         1 EM9       0.054700
     34 H13         -7.3940    -1.1170    -2.4240 hc         1 EM9       0.044700
     35 H14         -8.0700    -0.9440    -0.8190 hc         1 EM9       0.044700
     36 H15         -6.6570     1.2040    -2.5290 hc         1 EM9       0.046700
     37 H16         -8.3670     1.1650    -2.1440 hc         1 EM9       0.046700
     38 H17         -4.9300     1.5160    -0.6820 hc         1 EM9       0.052700
     39 H18         -9.2390     1.9100     0.0470 hc         1 EM9       0.039033
     40 H19         -8.4370     0.5660     0.8450 hc         1 EM9       0.039033
     41 H20         -8.2030     2.2030     1.4340 hc         1 EM9       0.039033
     42 H21         -6.0030     3.3470    -1.5520 h1         1 EM9       0.045700
     43 H22         -7.5650     4.9810    -1.2620 ho         1 EM9       0.453000
     44 H23         -6.8450     4.1370     1.2960 h1         1 EM9       0.084700
     45 H24         -5.9580     2.1450     2.1500 hc         1 EM9       0.061200
     46 H25         -4.3970     2.5460     1.4470 hc         1 EM9       0.061200
     47 C1          -1.6560    -0.6250     1.0300 c3         1 EM9      -0.075400
     48 C2          -0.4220    -0.3460     0.1440 c3         1 EM9      -0.074400
     49 C3           0.9160    -0.5630     0.8850 c3         1 EM9      -0.074400
     50 C4           2.1490    -0.2830    -0.0010 c3         1 EM9      -0.074400
     51 C5           3.4870    -0.5000     0.7390 c3         1 EM9      -0.074400
     52 C6           4.7210    -0.2200    -0.1460 c3         1 EM9      -0.074400
     53 C7           6.0580    -0.4370     0.5950 c3         1 EM9      -0.077400
     54 C8           7.2920    -0.1570    -0.2900 c3         1 EM9      -0.065400
     55 C10          8.6310    -0.3760     0.4570 c3         1 EM9      -0.152400
     56 C11          9.9130    -0.1150    -0.3650 c          1 EM9       0.602100
     57 N1          11.1690    -0.3040     0.2640 n          1 EM9      -0.415800
     58 O1           9.8470     0.2520    -1.5320 o          1 EM9      -0.606100
     59 C13         12.4350    -0.0820    -0.4750 c3         1 EM9       0.100000
     60 C14         13.0490     1.3060    -0.1990 c3         1 EM9      -0.098400
     61 C15         14.3720     1.5400    -0.9600 c3         1 EM9      -0.073400
     62 C16         14.9870     2.9260    -0.6870 c3         1 EM9      -0.088100
     63 C17         11.2800    -0.7440     1.6740 c3         1 EM9       0.092300
     64 H3          -1.6240     0.0320     1.9080 hc         1 EM9       0.035200
     65 H26         -1.5950    -1.6560     1.3960 hc         1 EM9       0.035200
     66 H27         -0.4560    -1.0000    -0.7370 hc         1 EM9       0.039200
     67 H28         -0.4670     0.6870    -0.2220 hc         1 EM9       0.039200
     68 H29          0.9490     0.0900     1.7660 hc         1 EM9       0.035700
     69 H30          0.9620    -1.5970     1.2500 hc         1 EM9       0.035700
     70 H31          2.1150    -0.9360    -0.8830 hc         1 EM9       0.038700
     71 H32          2.1030     0.7510    -0.3660 hc         1 EM9       0.038700
     72 H33          3.5210     0.1520     1.6210 hc         1 EM9       0.035700
     73 H34          3.5330    -1.5340     1.1040 hc         1 EM9       0.035700
     74 H35          4.6870    -0.8730    -1.0280 hc         1 EM9       0.040700
     75 H36          4.6750     0.8140    -0.5110 hc         1 EM9       0.040700
     76 H37          6.0920     0.2150     1.4760 hc         1 EM9       0.033700
     77 H38          6.1040    -1.4710     0.9590 hc         1 EM9       0.033700
     78 H39          7.2600    -0.8100    -1.1720 hc         1 EM9       0.055700
     79 H40          7.2470     0.8770    -0.6550 hc         1 EM9       0.055700
     80 H41          8.6820     0.2320     1.3670 hc         1 EM9       0.055200
     81 H42          8.6940    -1.3890     0.8720 hc         1 EM9       0.055200
     82 H43         13.1550    -0.8570    -0.1810 h1         1 EM9       0.054700
     83 H44         12.2680    -0.1980    -1.5540 h1         1 EM9       0.054700
     84 H45         12.3250     2.0790    -0.4850 hc         1 EM9       0.046700
     85 H46         13.2270     1.4140     0.8780 hc         1 EM9       0.046700
     86 H47         15.0970     0.7660    -0.6770 hc         1 EM9       0.037700
     87 H48         14.1960     1.4340    -2.0380 hc         1 EM9       0.037700
     88 H49         15.9220     3.0460    -1.2470 hc         1 EM9       0.032367
     89 H50         14.2990     3.7230    -0.9930 hc         1 EM9       0.032367
     90 H51         15.2080     3.0490     0.3800 hc         1 EM9       0.032367
     91 H52         10.8140    -1.7300     1.7960 h1         1 EM9       0.037033
     92 H53         12.3340    -0.8170     1.9710 h1         1 EM9       0.037033
     93 H54         10.7830    -0.0200     2.3320 h1         1 EM9       0.037033
@<TRIPOS>BOND
     1     1     2 1   
     2     1    23 1   
     3     1    24 1   
     4     1    47 1   
     5     2     3 1   
     6     2     4 1   
     7     2    25 1   
     8     3    12 1   
     9     3    16 1   
    10     3    26 1   
    11     4     5 1   
    12     4    27 1   
    13     4    28 1   
    14     5     6 ar  
    15     5    11 ar  
    16     6     7 ar  
    17     6    29 1   
    18     7     8 1   
    19     7     9 ar  
    20     8    30 1   
    21     9    10 ar  
    22     9    31 1   
    23    10    11 ar  
    24    10    32 1   
    25    11    12 1   
    26    12    13 1   
    27    12    33 1   
    28    13    14 1   
    29    13    34 1   
    30    13    35 1   
    31    14    15 1   
    32    14    36 1   
    33    14    37 1   
    34    15    16 1   
    35    15    17 1   
    36    15    18 1   
    37    16    22 1   
    38    16    38 1   
    39    17    39 1   
    40    17    40 1   
    41    17    41 1   
    42    18    19 1   
    43    18    20 1   
    44    18    42 1   
    45    19    43 1   
    46    20    21 1   
    47    20    22 1   
    48    20    44 1   
    49    22    45 1   
    50    22    46 1   
    51    47    48 1   
    52    47    64 1   
    53    47    65 1   
    54    48    49 1   
    55    48    66 1   
    56    48    67 1   
    57    49    50 1   
    58    49    68 1   
    59    49    69 1   
    60    50    51 1   
    61    50    70 1   
    62    50    71 1   
    63    51    52 1   
    64    51    72 1   
    65    51    73 1   
    66    52    53 1   
    67    52    74 1   
    68    52    75 1   
    69    53    54 1   
    70    53    76 1   
    71    53    77 1   
    72    54    55 1   
    73    54    78 1   
    74    54    79 1   
    75    55    56 1   
    76    55    80 1   
    77    55    81 1   
    78    56    57 1   
    79    56    58 2   
    80    57    59 1   
    81    57    63 1   
    82    59    60 1   
    83    59    82 1   
    84    59    83 1   
    85    60    61 1   
    86    60    84 1   
    87    60    85 1   
    88    61    62 1   
    89    61    86 1   
    90    61    87 1   
    91    62    88 1   
    92    62    89 1   
    93    62    90 1   
    94    63    91 1   
    95    63    92 1   
    96    63    93 1   
@<TRIPOS>SUBSTRUCTURE
     1 EM9         1 TEMP              0 ****  ****    0 ROOT
