@<TRIPOS>MOLECULE
EMB
   16    15     1     0     0
SMALL
No Charge or Current Charge


@<TRIPOS>ATOM
      1 C1          -0.4510    -0.0130     3.0550 c3         1 EMB      -0.100100
      2 C2           0.5030    -0.0070     1.8510 c3         1 EMB       0.185600
      3 O1          -0.3030    -0.0190     0.6610 os         1 EMB      -0.469100
      4 C3           0.3410    -0.0170    -0.5390 c          1 EMB       0.637100
      5 O2           1.5500    -0.0050    -0.7040 o          1 EMB      -0.546000
      6 N1          -0.5870    -0.0290    -1.5380 ns         1 EMB      -0.506900
      7 C4          -0.2650    -0.0310    -2.9650 c3         1 EMB       0.112300
      8 H13         -1.0810    -0.9100     3.0450 hc         1 EMB       0.046033
      9 H12          0.1200    -0.0040     3.9910 hc         1 EMB       0.046033
     10 H11         -1.0990     0.8710     3.0390 hc         1 EMB       0.046033
     11 H22          1.1340     0.8910     1.8880 h1         1 EMB       0.048200
     12 H21          1.1520    -0.8920     1.8930 h1         1 EMB       0.048200
     13 H1          -1.5570    -0.0380    -1.2470 hn         1 EMB       0.328500
     14 H43         -1.1930    -0.0420    -3.5510 h1         1 EMB       0.040700
     15 H42          0.3100     0.8700    -3.2140 h1         1 EMB       0.040700
     16 H41          0.3280    -0.9210    -3.2080 h1         1 EMB       0.040700
@<TRIPOS>BOND
     1     1     2 1   
     2     1     8 1   
     3     1     9 1   
     4     1    10 1   
     5     2     3 1   
     6     2    11 1   
     7     2    12 1   
     8     3     4 1   
     9     4     5 2   
    10     4     6 1   
    11     6     7 1   
    12     6    13 1   
    13     7    14 1   
    14     7    15 1   
    15     7    16 1   
@<TRIPOS>SUBSTRUCTURE
     1 EMB         1 TEMP              0 ****  ****    0 ROOT
