@<TRIPOS>MOLECULE
EMB
   16    15     1     0     0
SMALL
bcc


@<TRIPOS>ATOM
      1 C1          -0.4220    -0.0020     3.0380 c3         1 EMB      -0.100100
      2 C2           0.4830    -0.0240     1.8290 c3         1 EMB       0.162400
      3 O1          -0.3500    -0.0240     0.6660 os         1 EMB      -0.445900
      4 C3           0.2570    -0.0240    -0.5260 c          1 EMB       0.753100
      5 O2           1.4640    -0.0170    -0.6760 o          1 EMB      -0.595000
      6 N1          -0.6350    -0.0370    -1.5280 ns         1 EMB      -0.573900
      7 C4          -0.2220    -0.0220    -2.9100 c3         1 EMB       0.112300
      8 H13         -1.0720    -0.8770     3.0680 hc         1 EMB       0.046033
      9 H12          0.1850    -0.0060     3.9420 hc         1 EMB       0.046033
     10 H11         -1.0420     0.8940     3.0570 hc         1 EMB       0.046033
     11 H22          1.1370     0.8500     1.8240 h1         1 EMB       0.048200
     12 H21          1.1150    -0.9150     1.8380 h1         1 EMB       0.048200
     13 H1          -1.6180    -0.0260    -1.3150 hn         1 EMB       0.328500
     14 H43         -1.1080    -0.1220    -3.5300 h1         1 EMB       0.040700
     15 H42          0.2800     0.9080    -3.1800 h1         1 EMB       0.040700
     16 H41          0.4480    -0.8520    -3.1400 h1         1 EMB       0.040700
@<TRIPOS>BOND
     1     1     2 1   
     2     1     8 1   
     3     1     9 1   
     4     1    10 1   
     5     2     3 1   
     6     2    11 1   
     7     2    12 1   
     8     3     4 1   
     9     4     5 2   
    10     4     6 1   
    11     6     7 1   
    12     6    13 1   
    13     7    14 1   
    14     7    15 1   
    15     7    16 1   
@<TRIPOS>SUBSTRUCTURE
     1 EMB         1 TEMP              0 ****  ****    0 ROOT
