@<TRIPOS>MOLECULE
EMD
   53    56     1     0     0
SMALL
abcg2


@<TRIPOS>ATOM
      1 S1           0.1920    -1.3220     6.6720 ss         1 EMD      -0.297600
      2 C2          -0.3830     0.2010     7.3410 c          1 EMD       0.571600
      3 O2          -0.6330     0.3120     8.5210 o          1 EMD      -0.491000
      4 N3          -0.5620     1.2140     6.4490 ns         1 EMD      -0.266900
      5 N4          -0.6640     1.1280     5.0980 n2         1 EMD      -0.448300
      6 C5          -0.0200     0.2280     4.4640 ce         1 EMD       0.423900
      7 C6           0.9500    -0.7020     5.1380 c6         1 EMD      -0.002000
      8 C7           2.2960    -0.0340     5.3900 c3         1 EMD      -0.084100
      9 C8          -0.2100     0.1640     3.0040 ca         1 EMD      -0.143900
     10 C9          -1.3060     0.7780     2.4060 ca         1 EMD      -0.055000
     11 C10         -1.5040     0.7700     1.0310 ca         1 EMD      -0.115300
     12 C11         -0.5670     0.1240     0.2180 ca         1 EMD      -0.010000
     13 C12          0.5220    -0.5200     0.8080 ca         1 EMD      -0.113000
     14 C13          0.7000    -0.4990     2.1760 ca         1 EMD      -0.077000
     15 N14         -0.7620     0.0590    -1.1790 n          1 EMD      -0.229400
     16 C15         -2.1520     0.1830    -1.6170 c6         1 EMD       0.100000
     17 C16         -2.7440     1.4620    -1.0520 c6         1 EMD      -0.102400
     18 C17         -2.7440     1.4120     0.4670 c6         1 EMD      -0.027100
     19 C18          0.2960     0.2990    -2.0230 c          1 EMD       0.622700
     20 O18          1.3500     0.7660    -1.6280 o          1 EMD      -0.566100
     21 C19          0.1370    -0.0770    -3.4530 ca         1 EMD      -0.155600
     22 C20          0.7530     0.7290    -4.4170 ca         1 EMD      -0.125000
     23 C21          0.7220     0.3800    -5.7520 ca         1 EMD       0.103100
     24 O21          1.2660     1.0970    -6.7510 os         1 EMD      -0.322100
     25 C22          0.0890    -0.8210    -6.1440 ca         1 EMD       0.137100
     26 O22          0.1160    -1.0850    -7.4570 os         1 EMD      -0.316100
     27 C23         -0.4970    -1.6270    -5.1810 ca         1 EMD      -0.188000
     28 C24         -0.4780    -1.2550    -3.8410 ca         1 EMD      -0.073000
     29 C25          1.9550     2.2870    -6.4220 c3         1 EMD       0.143900
     30 C26         -0.5110    -2.2670    -7.9180 c3         1 EMD       0.143900
     31 H3          -1.0250     2.0320     6.8200 hn         1 EMD       0.346500
     32 H6           1.0940    -1.6030     4.5430 h1         1 EMD       0.101700
     33 H71          2.9810    -0.7350     5.8640 hc         1 EMD       0.054033
     34 H72          2.7400     0.2850     4.4460 hc         1 EMD       0.054033
     35 H73          2.2050     0.8430     6.0290 hc         1 EMD       0.054033
     36 H9          -2.0400     1.2760     3.0270 ha         1 EMD       0.128000
     37 H12          1.2340    -1.0570     0.1990 ha         1 EMD       0.131000
     38 H13          1.5650    -1.0070     2.5830 ha         1 EMD       0.115000
     39 H151        -2.1940     0.1980    -2.7010 h1         1 EMD       0.060700
     40 H152        -2.7150    -0.6900    -1.2790 h1         1 EMD       0.060700
     41 H161        -2.1590     2.3110    -1.4140 hc         1 EMD       0.054700
     42 H162        -3.7610     1.5940    -1.4240 hc         1 EMD       0.054700
     43 H171        -2.8620     2.4150     0.8830 hc         1 EMD       0.054200
     44 H172        -3.6110     0.8410     0.8140 hc         1 EMD       0.054200
     45 H20          1.2440     1.6390    -4.0980 ha         1 EMD       0.137000
     46 H23         -0.9720    -2.5590    -5.4560 ha         1 EMD       0.123000
     47 H24         -0.9340    -1.9090    -3.1090 ha         1 EMD       0.122000
     48 H251         2.3220     2.6990    -7.3580 h1         1 EMD       0.043033
     49 H252         1.2980     3.0210    -5.9480 h1         1 EMD       0.043033
     50 H253         2.8050     2.0950    -5.7620 h1         1 EMD       0.043033
     51 H261        -0.3740    -2.2860    -8.9960 h1         1 EMD       0.042700
     52 H262        -0.0580    -3.1640    -7.4890 h1         1 EMD       0.042700
     53 H263        -1.5810    -2.2720    -7.6980 h1         1 EMD       0.042700
@<TRIPOS>BOND
     1     1     2 1   
     2     1     7 1   
     3     2     3 2   
     4     2     4 1   
     5     4     5 1   
     6     4    31 1   
     7     5     6 2   
     8     6     7 1   
     9     6     9 1   
    10     7     8 1   
    11     7    32 1   
    12     8    33 1   
    13     8    34 1   
    14     8    35 1   
    15     9    10 ar  
    16     9    14 ar  
    17    10    11 ar  
    18    10    36 1   
    19    11    12 ar  
    20    11    18 1   
    21    12    13 ar  
    22    12    15 1   
    23    13    14 ar  
    24    13    37 1   
    25    14    38 1   
    26    15    16 1   
    27    15    19 1   
    28    16    17 1   
    29    16    39 1   
    30    16    40 1   
    31    17    18 1   
    32    17    41 1   
    33    17    42 1   
    34    18    43 1   
    35    18    44 1   
    36    19    20 2   
    37    19    21 1   
    38    21    22 ar  
    39    21    28 ar  
    40    22    23 ar  
    41    22    45 1   
    42    23    24 1   
    43    23    25 ar  
    44    24    29 1   
    45    25    26 1   
    46    25    27 ar  
    47    26    30 1   
    48    27    28 ar  
    49    27    46 1   
    50    28    47 1   
    51    29    48 1   
    52    29    49 1   
    53    29    50 1   
    54    30    51 1   
    55    30    52 1   
    56    30    53 1   
@<TRIPOS>SUBSTRUCTURE
     1 EMD         1 TEMP              0 ****  ****    0 ROOT
