@<TRIPOS>MOLECULE
EMD
   53    56     1     0     0
SMALL
No Charge or Current Charge


@<TRIPOS>ATOM
      1 S1           0.4880    -1.4550     6.7790 ss         1 EMD      -0.297600
      2 C2          -0.2650     0.0110     7.5590 c          1 EMD       0.571600
      3 O2          -0.4210     0.1170     8.7650 o          1 EMD      -0.491000
      4 N3          -0.6450     1.0100     6.6670 ns         1 EMD      -0.266900
      5 N4          -0.8650     0.8380     5.3000 n2         1 EMD      -0.448300
      6 C5          -0.0570     0.1550     4.5400 ce         1 EMD       0.423900
      7 C6           1.0220    -0.7540     5.1480 c6         1 EMD      -0.002000
      8 C7           2.3620     0.0130     5.3270 c3         1 EMD      -0.084100
      9 C8          -0.2710     0.1500     3.0460 ca         1 EMD      -0.143900
     10 C9          -1.4710     0.6500     2.4920 ca         1 EMD      -0.055000
     11 C10         -1.6810     0.6800     1.0990 ca         1 EMD      -0.115300
     12 C11         -0.6920     0.1770     0.2200 ca         1 EMD      -0.010000
     13 C12          0.5270    -0.2700     0.7680 ca         1 EMD      -0.113000
     14 C13          0.7330    -0.2940     2.1570 ca         1 EMD      -0.077000
     15 N14         -0.8520     0.3010    -1.2140 n          1 EMD      -0.229400
     16 C15         -2.2450     0.4380    -1.7080 c6         1 EMD       0.100000
     17 C16         -2.9790     1.5470    -0.9330 c6         1 EMD      -0.102400
     18 C17         -3.0180     1.2140     0.5710 c6         1 EMD      -0.027100
     19 C18          0.2160     0.6280    -2.0890 c          1 EMD       0.622700
     20 O18          1.2000     1.2460    -1.6940 o          1 EMD      -0.566100
     21 C19          0.1690     0.1020    -3.5140 ca         1 EMD      -0.155600
     22 C20          0.8990     0.7640    -4.5270 ca         1 EMD      -0.125000
     23 C21          0.8880     0.2910    -5.8600 ca         1 EMD       0.103100
     24 O21          1.5870     0.9340    -6.8700 os         1 EMD      -0.322100
     25 C22          0.1470    -0.8690    -6.1840 ca         1 EMD       0.137100
     26 O22          0.1500    -1.3140    -7.4960 os         1 EMD      -0.316100
     27 C23         -0.5650    -1.5460    -5.1700 ca         1 EMD      -0.188000
     28 C24         -0.5480    -1.0680    -3.8490 ca         1 EMD      -0.073000
     29 C25          2.3700     2.1190    -6.6390 c3         1 EMD       0.143900
     30 C26         -0.5740    -2.4840    -7.9170 c3         1 EMD       0.143900
     31 H3          -0.9660     1.8600     7.1240 hn         1 EMD       0.346500
     32 H6           1.1990    -1.6100     4.4820 h1         1 EMD       0.101700
     33 H71          3.1420    -0.6480     5.7250 hc         1 EMD       0.054033
     34 H72          2.7260     0.4170     4.3760 hc         1 EMD       0.054033
     35 H73          2.2540     0.8540     6.0220 hc         1 EMD       0.054033
     36 H9          -2.2610     1.0190     3.1430 ha         1 EMD       0.128000
     37 H12          1.3240    -0.6230     0.1180 ha         1 EMD       0.131000
     38 H13          1.6900    -0.6550     2.5230 ha         1 EMD       0.115000
     39 H151        -2.2590     0.6900    -2.7780 h1         1 EMD       0.060700
     40 H152        -2.7710    -0.5190    -1.5810 h1         1 EMD       0.060700
     41 H161        -2.4600     2.5030    -1.0880 hc         1 EMD       0.054700
     42 H162        -3.9990     1.6730    -1.3200 hc         1 EMD       0.054700
     43 H171        -3.3210     2.1060     1.1350 hc         1 EMD       0.054200
     44 H172        -3.7950     0.4580     0.7530 hc         1 EMD       0.054200
     45 H20          1.4640     1.6540    -4.2630 ha         1 EMD       0.137000
     46 H23         -1.1310    -2.4480    -5.3840 ha         1 EMD       0.123000
     47 H24         -1.0830    -1.6290    -3.0850 ha         1 EMD       0.122000
     48 H251         2.8350     2.4540    -7.5740 h1         1 EMD       0.043033
     49 H252         1.7420     2.9350    -6.2610 h1         1 EMD       0.043033
     50 H253         3.1710     1.9230    -5.9140 h1         1 EMD       0.043033
     51 H261        -0.4350    -2.6500    -8.9920 h1         1 EMD       0.042700
     52 H262        -0.2160    -3.3760    -7.3870 h1         1 EMD       0.042700
     53 H263        -1.6490    -2.3670    -7.7270 h1         1 EMD       0.042700
@<TRIPOS>BOND
     1     1     2 1   
     2     1     7 1   
     3     2     3 2   
     4     2     4 1   
     5     4     5 1   
     6     4    31 1   
     7     5     6 2   
     8     6     7 1   
     9     6     9 1   
    10     7     8 1   
    11     7    32 1   
    12     8    33 1   
    13     8    34 1   
    14     8    35 1   
    15     9    10 ar  
    16     9    14 ar  
    17    10    11 ar  
    18    10    36 1   
    19    11    12 ar  
    20    11    18 1   
    21    12    13 ar  
    22    12    15 1   
    23    13    14 ar  
    24    13    37 1   
    25    14    38 1   
    26    15    16 1   
    27    15    19 1   
    28    16    17 1   
    29    16    39 1   
    30    16    40 1   
    31    17    18 1   
    32    17    41 1   
    33    17    42 1   
    34    18    43 1   
    35    18    44 1   
    36    19    20 2   
    37    19    21 1   
    38    21    22 ar  
    39    21    28 ar  
    40    22    23 ar  
    41    22    45 1   
    42    23    24 1   
    43    23    25 ar  
    44    24    29 1   
    45    25    26 1   
    46    25    27 ar  
    47    26    30 1   
    48    27    28 ar  
    49    27    46 1   
    50    28    47 1   
    51    29    48 1   
    52    29    49 1   
    53    29    50 1   
    54    30    51 1   
    55    30    52 1   
    56    30    53 1   
@<TRIPOS>SUBSTRUCTURE
     1 EMD         1 TEMP              0 ****  ****    0 ROOT
