@<TRIPOS>MOLECULE
EME
   20    19     1     0     0
SMALL
abcg2


@<TRIPOS>ATOM
      1 C7          -2.2460     2.3560    -0.1500 c3         1 EME       0.166100
      2 N2          -1.1500     1.5650     0.3680 n7         1 EME      -0.826400
      3 CA          -0.9580     0.3160    -0.3420 c3         1 EME       0.029500
      4 C           -2.1140    -0.6850    -0.1120 c          1 EME       0.722000
      5 O           -2.7890    -0.5790     0.9290 o          1 EME      -0.750500
      6 CB           0.3500    -0.3550     0.0910 c3         1 EME      -0.047400
      7 CG           1.6050     0.4440    -0.2290 c3         1 EME      -0.202400
      8 CD           2.9420    -0.2820     0.0170 c          1 EME       0.714000
      9 OE2          2.9040    -1.4680     0.4020 o          1 EME      -0.763500
     10 OE1          3.9730     0.3900    -0.1970 o          1 EME      -0.763500
     11 OXT         -2.2450    -1.5610    -0.9940 o          1 EME      -0.750500
     12 H1          -2.2430     3.3420     0.3180 h1         1 EME      -0.000967
     13 H2          -2.2120     2.5090    -1.2400 h1         1 EME      -0.000967
     14 H3          -3.2000     1.8850     0.0860 h1         1 EME      -0.000967
     15 H4          -0.3060     2.1160     0.2830 hn         1 EME       0.373000
     16 H6          -0.8940     0.4850    -1.4330 h1         1 EME      -0.007300
     17 H7           0.3010    -0.5620     1.1650 hc         1 EME       0.052200
     18 H8           0.4110    -1.3240    -0.4070 hc         1 EME       0.052200
     19 H9           1.5790     0.7580    -1.2800 hc         1 EME       0.003200
     20 H10          1.6350     1.3760     0.3460 hc         1 EME       0.003200
@<TRIPOS>BOND
     1     1     2 1   
     2     1    12 1   
     3     1    13 1   
     4     1    14 1   
     5     2     3 1   
     6     2    15 1   
     7     3     4 1   
     8     3     6 1   
     9     3    16 1   
    10     4     5 1   
    11     4    11 1   
    12     6     7 1   
    13     6    17 1   
    14     6    18 1   
    15     7     8 1   
    16     7    19 1   
    17     7    20 1   
    18     8     9 1   
    19     8    10 1   
@<TRIPOS>SUBSTRUCTURE
     1 EME         1 TEMP              0 ****  ****    0 ROOT
