@<TRIPOS>MOLECULE
EME
   20    19     1     0     0
SMALL
No Charge or Current Charge


@<TRIPOS>ATOM
      1 C7          -2.2640     2.4240    -0.2990 c3         1 EME       0.166100
      2 N2          -1.1040     1.6890     0.2290 n7         1 EME      -0.826400
      3 CA          -0.9610     0.2720    -0.2520 c3         1 EME       0.029500
      4 C           -2.1530    -0.7010     0.1460 c          1 EME       0.722000
      5 O           -2.2030    -1.1550     1.2840 o          1 EME      -0.750500
      6 CB           0.4120    -0.2970     0.2070 c3         1 EME      -0.047400
      7 CG           1.6460     0.4180    -0.4090 c3         1 EME      -0.202400
      8 CD           2.9400    -0.2970     0.0270 c          1 EME       0.714000
      9 OE2          3.3460    -1.2230    -0.6570 o          1 EME      -0.763500
     10 OE1          3.4780     0.0610     1.0630 o          1 EME      -0.763500
     11 OXT         -2.9780    -0.9890    -0.7130 o          1 EME      -0.750500
     12 H1          -2.2740     3.4500     0.0910 h1         1 EME      -0.000967
     13 H2          -2.2250     2.4740    -1.3950 h1         1 EME      -0.000967
     14 H3          -3.2030     1.9370    -0.0050 h1         1 EME      -0.000967
     15 H4          -0.2570     2.1960    -0.0520 hn         1 EME       0.373000
     16 H6          -0.9350     0.2900    -1.3510 h1         1 EME      -0.007300
     17 H7           0.4770    -0.2620     1.3020 hc         1 EME       0.052200
     18 H8           0.4530    -1.3580    -0.0720 hc         1 EME       0.052200
     19 H9           1.5180     0.3510    -1.4970 hc         1 EME       0.003200
     20 H10          1.6310     1.4470    -0.0270 hc         1 EME       0.003200
@<TRIPOS>BOND
     1     1     2 1   
     2     1    12 1   
     3     1    13 1   
     4     1    14 1   
     5     2     3 1   
     6     2    15 1   
     7     3     4 1   
     8     3     6 1   
     9     3    16 1   
    10     4     5 1   
    11     4    11 1   
    12     6     7 1   
    13     6    17 1   
    14     6    18 1   
    15     7     8 1   
    16     7    19 1   
    17     7    20 1   
    18     8     9 1   
    19     8    10 1   
@<TRIPOS>SUBSTRUCTURE
     1 EME         1 TEMP              0 ****  ****    0 ROOT
