@<TRIPOS>MOLECULE
EMF
   33    34     1     0     0
SMALL
bcc


@<TRIPOS>ATOM
      1 O9           3.3150     0.6840     1.6510 o          1 EMF      -0.550000
      2 C9           3.0230    -0.0480     0.7340 c          1 EMF       0.676100
      3 O10          3.7550    -0.1850    -0.3620 os         1 EMF      -0.419900
      4 C11          4.9520     0.6020    -0.4800 c3         1 EMF       0.143400
      5 C12          5.5800     0.2850    -1.8160 c3         1 EMF      -0.097100
      6 C8           1.8080    -0.8880     0.6840 cx         1 EMF      -0.214700
      7 C14          1.2250    -1.3870     1.9750 cx         1 EMF      -0.085400
      8 C7           0.5250    -0.2960     1.2490 cx         1 EMF      -0.041400
      9 C1          -0.7590    -0.5000     0.5320 ca         1 EMF      -0.059300
     10 C2          -1.5990     0.6000     0.3440 ca         1 EMF      -0.160000
     11 C3          -2.8040     0.4740    -0.3280 ca         1 EMF       0.049100
     12 O3          -3.6790     1.4770    -0.5570 os         1 EMF      -0.344900
     13 C13         -3.3430     2.7810    -0.1250 c3         1 EMF       0.133700
     14 C6          -1.1550    -1.7320     0.0270 ca         1 EMF      -0.118000
     15 C5          -2.3600    -1.8650    -0.6520 ca         1 EMF      -0.140000
     16 C4          -3.1930    -0.7760    -0.8360 ca         1 EMF       0.123100
     17 O4          -4.3590    -0.9370    -1.4980 oh         1 EMF      -0.495100
     18 H111         4.7020     1.6620    -0.4100 h1         1 EMF       0.048200
     19 H112         5.6330     0.3620     0.3390 h1         1 EMF       0.048200
     20 H121         6.4820     0.8830    -1.9370 hc         1 EMF       0.046700
     21 H122         5.8620    -0.7650    -1.8890 hc         1 EMF       0.046700
     22 H123         4.9080     0.5250    -2.6400 hc         1 EMF       0.046700
     23 H8           1.7010    -1.5230    -0.1870 hc         1 EMF       0.109700
     24 H141         0.7940    -2.3800     1.9600 hc         1 EMF       0.085200
     25 H142         1.7410    -1.1310     2.8910 hc         1 EMF       0.085200
     26 H7           0.6390     0.6940     1.6770 hc         1 EMF       0.096700
     27 H2          -1.2920     1.5630     0.7330 ha         1 EMF       0.136000
     28 H131        -4.1610     3.4290    -0.4290 h1         1 EMF       0.042700
     29 H132        -3.2370     2.8340     0.9610 h1         1 EMF       0.042700
     30 H133        -2.4190     3.1350    -0.5900 h1         1 EMF       0.042700
     31 H6          -0.5310    -2.6090     0.1500 ha         1 EMF       0.134000
     32 H5          -2.6600    -2.8290    -1.0440 ha         1 EMF       0.149000
     33 HO4         -4.8180    -0.0910    -1.5730 ho         1 EMF       0.442000
@<TRIPOS>BOND
     1     1     2 2   
     2     2     3 1   
     3     2     6 1   
     4     3     4 1   
     5     4     5 1   
     6     4    18 1   
     7     4    19 1   
     8     5    20 1   
     9     5    21 1   
    10     5    22 1   
    11     6     7 1   
    12     6     8 1   
    13     6    23 1   
    14     7     8 1   
    15     7    24 1   
    16     7    25 1   
    17     8     9 1   
    18     8    26 1   
    19     9    10 ar  
    20     9    14 ar  
    21    10    11 ar  
    22    10    27 1   
    23    11    12 1   
    24    11    16 ar  
    25    12    13 1   
    26    13    28 1   
    27    13    29 1   
    28    13    30 1   
    29    14    15 ar  
    30    14    31 1   
    31    15    16 ar  
    32    15    32 1   
    33    16    17 1   
    34    17    33 1   
@<TRIPOS>SUBSTRUCTURE
     1 EMF         1 TEMP              0 ****  ****    0 ROOT
