@<TRIPOS>MOLECULE
EMF
   33    34     1     0     0
SMALL
No Charge or Current Charge


@<TRIPOS>ATOM
      1 O9           4.1820    -1.1860     1.6340 o          1 EMF      -0.501000
      2 C9           3.2620    -0.8780     0.8870 c          1 EMF       0.627100
      3 O10          3.3830    -0.0390    -0.1890 os         1 EMF      -0.443100
      4 C11          4.6700     0.5450    -0.4480 c3         1 EMF       0.166600
      5 C12          4.5270     1.4390    -1.6890 c3         1 EMF      -0.097100
      6 C8           1.8660    -1.4250     1.0250 cx         1 EMF      -0.214700
      7 C14          1.1770    -1.3380     2.3720 cx         1 EMF      -0.085400
      8 C7           0.7280    -0.4430     1.2370 cx         1 EMF      -0.041400
      9 C1          -0.6080    -0.6100     0.5510 ca         1 EMF      -0.059300
     10 C2          -1.2910     0.5330     0.0800 ca         1 EMF      -0.142000
     11 C3          -2.5410     0.4070    -0.5670 ca         1 EMF       0.049100
     12 O3          -3.2450     1.5010    -1.0450 os         1 EMF      -0.368100
     13 C13         -2.7520     2.8480    -0.9180 c3         1 EMF       0.156900
     14 C6          -1.1900    -1.8830     0.3650 ca         1 EMF      -0.100000
     15 C5          -2.4330    -2.0120    -0.2770 ca         1 EMF      -0.122000
     16 C4          -3.1060    -0.8720    -0.7410 ca         1 EMF       0.123100
     17 O4          -4.3130    -1.0000    -1.3650 oh         1 EMF      -0.534100
     18 H111         5.0040     1.1520     0.4040 h1         1 EMF       0.048200
     19 H112         5.4220    -0.2320    -0.6400 h1         1 EMF       0.048200
     20 H121         5.4870     1.9110    -1.9290 hc         1 EMF       0.046700
     21 H122         4.2080     0.8490    -2.5560 hc         1 EMF       0.046700
     22 H123         3.7890     2.2310    -1.5130 hc         1 EMF       0.046700
     23 H8           1.6660    -2.3030     0.4210 hc         1 EMF       0.109700
     24 H141         0.5300    -2.1600     2.6690 hc         1 EMF       0.085200
     25 H142         1.7140    -0.8720     3.1950 hc         1 EMF       0.085200
     26 H7           1.0100     0.6040     1.3300 hc         1 EMF       0.096700
     27 H2          -0.8370     1.5090     0.2230 ha         1 EMF       0.118000
     28 H131        -3.4630     3.5570    -1.3620 h1         1 EMF       0.042700
     29 H132        -2.6190     3.1180     0.1380 h1         1 EMF       0.042700
     30 H133        -1.7910     2.9630    -1.4350 h1         1 EMF       0.042700
     31 H6          -0.6860    -2.7790     0.7160 ha         1 EMF       0.116000
     32 H5          -2.8740    -2.9960    -0.4160 ha         1 EMF       0.131000
     33 HO4         -4.5980    -0.0900    -1.6040 ho         1 EMF       0.481000
@<TRIPOS>BOND
     1     1     2 2   
     2     2     3 1   
     3     2     6 1   
     4     3     4 1   
     5     4     5 1   
     6     4    18 1   
     7     4    19 1   
     8     5    20 1   
     9     5    21 1   
    10     5    22 1   
    11     6     7 1   
    12     6     8 1   
    13     6    23 1   
    14     7     8 1   
    15     7    24 1   
    16     7    25 1   
    17     8     9 1   
    18     8    26 1   
    19     9    10 ar  
    20     9    14 ar  
    21    10    11 ar  
    22    10    27 1   
    23    11    12 1   
    24    11    16 ar  
    25    12    13 1   
    26    13    28 1   
    27    13    29 1   
    28    13    30 1   
    29    14    15 ar  
    30    14    31 1   
    31    15    16 ar  
    32    15    32 1   
    33    16    17 1   
    34    17    33 1   
@<TRIPOS>SUBSTRUCTURE
     1 EMF         1 TEMP              0 ****  ****    0 ROOT
