@<TRIPOS>MOLECULE
EMG
  140   141     1     0     0
SMALL
No Charge or Current Charge


@<TRIPOS>ATOM
      1 O            0.4890     6.1750     2.1450 o          1 EMG      -0.608100
      2 C46         18.2670   -10.9030    -0.6030 c3         1 EMG      -0.088100
      3 C45         17.0260   -10.3930     0.1540 c3         1 EMG      -0.074400
      4 C44         16.3340    -9.2030    -0.5470 c3         1 EMG      -0.075400
      5 C39         15.0930    -8.6900     0.2160 c3         1 EMG      -0.074400
      6 C38         14.4000    -7.5000    -0.4840 c3         1 EMG      -0.073400
      7 C37         13.1630    -6.9840     0.2840 c3         1 EMG      -0.074400
      8 C36         12.4690    -5.7940    -0.4140 c3         1 EMG      -0.073400
      9 C35         11.2420    -5.2680     0.3630 c3         1 EMG      -0.074400
     10 C43         10.5490    -4.0760    -0.3340 c3         1 EMG      -0.073400
     11 C42          9.3340    -3.5380     0.4530 c3         1 EMG      -0.075400
     12 C41          8.6460    -2.3410    -0.2410 c3         1 EMG      -0.073400
     13 C40          7.4450    -1.7850     0.5560 c3         1 EMG      -0.075400
     14 C7           6.7670    -0.5820    -0.1350 c3         1 EMG      -0.073400
     15 C6           5.5820    -0.0060     0.6730 c3         1 EMG      -0.075400
     16 C5           4.9170     1.2080    -0.0150 c3         1 EMG      -0.073400
     17 C4           3.7510     1.8070     0.8030 c3         1 EMG      -0.075400
     18 C3           3.1040     3.0320     0.1200 c3         1 EMG      -0.076400
     19 C2           1.9610     3.6580     0.9490 c3         1 EMG      -0.063400
     20 C1           1.3350     4.9000     0.2710 c3         1 EMG      -0.150400
     21 C20          0.2390     5.5250     1.1410 c          1 EMG       0.611100
     22 N2          -1.0440     5.3220     0.6920 ns         1 EMG      -0.505900
     23 C27         -2.2660     5.8260     1.3400 c3         1 EMG       0.092700
     24 C28         -2.3720     7.3750     1.2280 c3         1 EMG       0.144600
     25 O4          -2.3580     7.7480    -0.1670 os         1 EMG      -0.479000
     26 C31         -2.4980     9.1550    -0.4530 c6         1 EMG       0.361300
     27 O9          -1.3940     9.8940     0.1160 os         1 EMG      -0.448000
     28 C30         -0.0920     9.5740    -0.4470 c6         1 EMG       0.171300
     29 C29          1.0070    10.3620     0.3420 c3         1 EMG       0.169600
     30 O8           1.0110    10.0840     1.7580 oh         1 EMG      -0.710000
     31 C34         -0.0570     9.8800    -1.9800 c6         1 EMG       0.146300
     32 O7          -0.2040    11.2850    -2.2770 oh         1 EMG      -0.715000
     33 C33         -1.2080     9.0920    -2.6730 c6         1 EMG       0.139300
     34 O6          -1.2690     9.4210    -4.0750 oh         1 EMG      -0.674000
     35 C32         -2.5860     9.3880    -1.9990 c6         1 EMG       0.114300
     36 O5          -3.6140     8.5700    -2.6090 oh         1 EMG      -0.713000
     37 C26         -3.5660     5.1060     0.8360 c3         1 EMG       0.127300
     38 O3          -4.6530     5.4810     1.7100 oh         1 EMG      -0.644000
     39 C25         -3.4580     3.5360     0.7420 c3         1 EMG       0.135300
     40 O2          -2.5490     3.1610    -0.3090 oh         1 EMG      -0.658000
     41 C24         -4.8140     2.8190     0.4780 c3         1 EMG      -0.108400
     42 C23         -4.7300     1.2710     0.5040 c3         1 EMG      -0.066400
     43 C22         -6.1130     0.5930     0.3510 c3         1 EMG      -0.157400
     44 C21         -6.0190    -0.9330     0.4700 c          1 EMG       0.596100
     45 O1          -5.8040    -1.4950     1.5350 o          1 EMG      -0.606100
     46 N1          -6.2320    -1.6250    -0.7010 ns         1 EMG      -0.508900
     47 C19         -6.2600    -3.0860    -0.8150 c3         1 EMG       0.105000
     48 C18         -7.5980    -3.6790    -0.3260 c3         1 EMG      -0.094400
     49 C17         -7.6560    -5.2180    -0.4510 c3         1 EMG      -0.072400
     50 C16         -8.9940    -5.8120     0.0440 c3         1 EMG      -0.075400
     51 C15         -9.0530    -7.3510    -0.0750 c3         1 EMG      -0.073400
     52 C14        -10.3880    -7.9460     0.4200 c3         1 EMG      -0.030100
     53 C13        -10.4190    -9.4640     0.2970 ca         1 EMG      -0.078300
     54 C12        -10.8920   -10.0720    -0.8820 ca         1 EMG      -0.107500
     55 C11        -10.9170   -11.4730    -0.9980 ca         1 EMG      -0.109000
     56 C10        -10.4670   -12.2750     0.0660 ca         1 EMG      -0.111000
     57 C9          -9.9920   -11.6740     1.2440 ca         1 EMG      -0.109000
     58 C8          -9.9670   -10.2730     1.3590 ca         1 EMG      -0.107500
     59 H1          18.7220   -11.7450    -0.0690 hc         1 EMG       0.031367
     60 H2          17.9950   -11.2410    -1.6110 hc         1 EMG       0.031367
     61 H3          19.0190   -10.1090    -0.6950 hc         1 EMG       0.031367
     62 H4          16.3100   -11.2180     0.2610 hc         1 EMG       0.036700
     63 H5          17.3240   -10.0950     1.1670 hc         1 EMG       0.036700
     64 H6          17.0540    -8.3820    -0.6550 hc         1 EMG       0.036700
     65 H7          16.0370    -9.5040    -1.5590 hc         1 EMG       0.036700
     66 H8          14.3730    -9.5120     0.3260 hc         1 EMG       0.036700
     67 H9          15.3910    -8.3880     1.2280 hc         1 EMG       0.036700
     68 H10         15.1200    -6.6810    -0.5990 hc         1 EMG       0.036700
     69 H11         14.0960    -7.8040    -1.4940 hc         1 EMG       0.036700
     70 H12         12.4430    -7.8030     0.4000 hc         1 EMG       0.036700
     71 H13         13.4690    -6.6800     1.2940 hc         1 EMG       0.036700
     72 H14         13.1920    -4.9780    -0.5390 hc         1 EMG       0.037200
     73 H15         12.1550    -6.1000    -1.4200 hc         1 EMG       0.037200
     74 H16         10.5180    -6.0830     0.4870 hc         1 EMG       0.036700
     75 H17         11.5570    -4.9630     1.3690 hc         1 EMG       0.036700
     76 H18         11.2770    -3.2670    -0.4690 hc         1 EMG       0.036700
     77 H19         10.2230    -4.3850    -1.3350 hc         1 EMG       0.036700
     78 H20          8.6030    -4.3450     0.5860 hc         1 EMG       0.036700
     79 H21          9.6610    -3.2320     1.4550 hc         1 EMG       0.036700
     80 H22          9.3820    -1.5400    -0.3880 hc         1 EMG       0.037200
     81 H23          8.3060    -2.6500    -1.2380 hc         1 EMG       0.037200
     82 H24          6.7060    -2.5830     0.6990 hc         1 EMG       0.037200
     83 H25          7.7860    -1.4820     1.5540 hc         1 EMG       0.037200
     84 H26          7.5110     0.2080    -0.2920 hc         1 EMG       0.037200
     85 H27          6.4110    -0.8890    -1.1270 hc         1 EMG       0.037200
     86 H28          4.8310    -0.7920     0.8240 hc         1 EMG       0.037700
     87 H29          5.9370     0.2940     1.6670 hc         1 EMG       0.037700
     88 H30          5.6740     1.9840    -0.1820 hc         1 EMG       0.036200
     89 H31          4.5470     0.9040    -1.0020 hc         1 EMG       0.036200
     90 H32          2.9870     1.0360     0.9620 hc         1 EMG       0.039700
     91 H33          4.1210     2.1010     1.7930 hc         1 EMG       0.039700
     92 H34          3.8760     3.7920    -0.0570 hc         1 EMG       0.033700
     93 H35          2.7170     2.7340    -0.8620 hc         1 EMG       0.033700
     94 H36          1.1800     2.9060     1.1170 hc         1 EMG       0.055700
     95 H37          2.3470     3.9420     1.9360 hc         1 EMG       0.055700
     96 H38          2.1240     5.6450     0.1160 hc         1 EMG       0.054700
     97 H39          0.9180     4.5950    -0.6960 hc         1 EMG       0.054700
     98 H40         -1.1580     4.7000    -0.1020 hn         1 EMG       0.323500
     99 H41         -2.1660     5.5920     2.4080 h1         1 EMG       0.072700
    100 H42         -3.2940     7.7210     1.7150 h1         1 EMG       0.055200
    101 H43         -1.5280     7.8350     1.7580 h1         1 EMG       0.055200
    102 H44         -3.4340     9.5150     0.0010 h2         1 EMG       0.069700
    103 H45          0.1030     8.5020    -0.2970 h1         1 EMG       0.056700
    104 H46          1.9840    10.1060    -0.0920 h1         1 EMG       0.035200
    105 H47          0.8500    11.4360     0.1740 h1         1 EMG       0.035200
    106 H48          1.6820    10.6790     2.1660 ho         1 EMG       0.505000
    107 H49          0.9000     9.5140    -2.3820 h1         1 EMG       0.048700
    108 H50         -0.5060    11.3020    -3.2180 ho         1 EMG       0.521000
    109 H51         -0.9950     8.0180    -2.5530 h1         1 EMG       0.063700
    110 H52         -2.1530     9.1000    -4.3740 ho         1 EMG       0.468000
    111 H53         -2.8230    10.4510    -2.1540 h1         1 EMG       0.064700
    112 H54         -3.6140     7.7200    -2.1060 ho         1 EMG       0.511000
    113 H55         -3.7750     5.4730    -0.1780 h1         1 EMG       0.089700
    114 H56         -4.5230     5.0220     2.5690 ho         1 EMG       0.440000
    115 H57         -3.0700     3.1770     1.7060 h1         1 EMG       0.080700
    116 H58         -3.0900     2.9660    -1.1050 ho         1 EMG       0.440000
    117 H59         -5.5380     3.1220     1.2440 hc         1 EMG       0.049200
    118 H60         -5.2250     3.1490    -0.4840 hc         1 EMG       0.049200
    119 H61         -4.0680     0.9170    -0.2960 hc         1 EMG       0.060200
    120 H62         -4.2780     0.9550     1.4530 hc         1 EMG       0.060200
    121 H63         -6.7690     0.9600     1.1500 hc         1 EMG       0.054200
    122 H64         -6.5340     0.8700    -0.6230 hc         1 EMG       0.054200
    123 H65         -6.4100    -1.0720    -1.5310 hn         1 EMG       0.310500
    124 H66         -6.1030    -3.3560    -1.8670 h1         1 EMG       0.052200
    125 H67         -5.4320    -3.5080    -0.2300 h1         1 EMG       0.052200
    126 H68         -7.7580    -3.3990     0.7220 hc         1 EMG       0.041200
    127 H69         -8.4180    -3.2380    -0.9060 hc         1 EMG       0.041200
    128 H70         -7.5020    -5.5000    -1.5000 hc         1 EMG       0.043700
    129 H71         -6.8320    -5.6570     0.1240 hc         1 EMG       0.043700
    130 H72         -9.1480    -5.5260     1.0920 hc         1 EMG       0.037700
    131 H73         -9.8180    -5.3740    -0.5330 hc         1 EMG       0.037700
    132 H74         -8.8990    -7.6390    -1.1220 hc         1 EMG       0.044200
    133 H75         -8.2290    -7.7900     0.5020 hc         1 EMG       0.044200
    134 H76        -10.5500    -7.6510     1.4640 hc         1 EMG       0.045200
    135 H77        -11.2140    -7.5060    -0.1530 hc         1 EMG       0.045200
    136 H78        -11.2400    -9.4590    -1.7110 ha         1 EMG       0.110000
    137 H79        -11.2840   -11.9370    -1.9110 ha         1 EMG       0.111000
    138 H80        -10.4850   -13.3590    -0.0240 ha         1 EMG       0.112000
    139 H81         -9.6420   -12.2930     2.0670 ha         1 EMG       0.111000
    140 H82         -9.5950    -9.8150     2.2740 ha         1 EMG       0.110000
@<TRIPOS>BOND
     1     1    21 2   
     2     2     3 1   
     3     2    59 1   
     4     2    60 1   
     5     2    61 1   
     6     3     4 1   
     7     3    62 1   
     8     3    63 1   
     9     4     5 1   
    10     4    64 1   
    11     4    65 1   
    12     5     6 1   
    13     5    66 1   
    14     5    67 1   
    15     6     7 1   
    16     6    68 1   
    17     6    69 1   
    18     7     8 1   
    19     7    70 1   
    20     7    71 1   
    21     8     9 1   
    22     8    72 1   
    23     8    73 1   
    24     9    10 1   
    25     9    74 1   
    26     9    75 1   
    27    10    11 1   
    28    10    76 1   
    29    10    77 1   
    30    11    12 1   
    31    11    78 1   
    32    11    79 1   
    33    12    13 1   
    34    12    80 1   
    35    12    81 1   
    36    13    14 1   
    37    13    82 1   
    38    13    83 1   
    39    14    15 1   
    40    14    84 1   
    41    14    85 1   
    42    15    16 1   
    43    15    86 1   
    44    15    87 1   
    45    16    17 1   
    46    16    88 1   
    47    16    89 1   
    48    17    18 1   
    49    17    90 1   
    50    17    91 1   
    51    18    19 1   
    52    18    92 1   
    53    18    93 1   
    54    19    20 1   
    55    19    94 1   
    56    19    95 1   
    57    20    21 1   
    58    20    96 1   
    59    20    97 1   
    60    21    22 1   
    61    22    23 1   
    62    22    98 1   
    63    23    24 1   
    64    23    37 1   
    65    23    99 1   
    66    24    25 1   
    67    24   100 1   
    68    24   101 1   
    69    25    26 1   
    70    26    27 1   
    71    26    35 1   
    72    26   102 1   
    73    27    28 1   
    74    28    29 1   
    75    28    31 1   
    76    28   103 1   
    77    29    30 1   
    78    29   104 1   
    79    29   105 1   
    80    30   106 1   
    81    31    32 1   
    82    31    33 1   
    83    31   107 1   
    84    32   108 1   
    85    33    34 1   
    86    33    35 1   
    87    33   109 1   
    88    34   110 1   
    89    35    36 1   
    90    35   111 1   
    91    36   112 1   
    92    37    38 1   
    93    37    39 1   
    94    37   113 1   
    95    38   114 1   
    96    39    40 1   
    97    39    41 1   
    98    39   115 1   
    99    40   116 1   
   100    41    42 1   
   101    41   117 1   
   102    41   118 1   
   103    42    43 1   
   104    42   119 1   
   105    42   120 1   
   106    43    44 1   
   107    43   121 1   
   108    43   122 1   
   109    44    45 2   
   110    44    46 1   
   111    46    47 1   
   112    46   123 1   
   113    47    48 1   
   114    47   124 1   
   115    47   125 1   
   116    48    49 1   
   117    48   126 1   
   118    48   127 1   
   119    49    50 1   
   120    49   128 1   
   121    49   129 1   
   122    50    51 1   
   123    50   130 1   
   124    50   131 1   
   125    51    52 1   
   126    51   132 1   
   127    51   133 1   
   128    52    53 1   
   129    52   134 1   
   130    52   135 1   
   131    53    54 ar  
   132    53    58 ar  
   133    54    55 ar  
   134    54   136 1   
   135    55    56 ar  
   136    55   137 1   
   137    56    57 ar  
   138    56   138 1   
   139    57    58 ar  
   140    57   139 1   
   141    58   140 1   
@<TRIPOS>SUBSTRUCTURE
     1 EMG         1 TEMP              0 ****  ****    0 ROOT
