@<TRIPOS>MOLECULE
EMG
  140   141     1     0     0
SMALL
bcc


@<TRIPOS>ATOM
      1 O            0.4010     3.6760     2.8670 o          1 EMG      -0.608100
      2 C46         21.2500    -7.9820    -0.9770 c3         1 EMG      -0.088100
      3 C45         20.2940    -7.1300    -0.1540 c3         1 EMG      -0.074400
      4 C44         18.9930    -6.8260    -0.8870 c3         1 EMG      -0.075400
      5 C39         18.0270    -5.9750    -0.0730 c3         1 EMG      -0.074400
      6 C38         16.7250    -5.6690    -0.8030 c3         1 EMG      -0.073400
      7 C37         15.7650    -4.8190     0.0180 c3         1 EMG      -0.074400
      8 C36         14.4560    -4.5100    -0.6980 c3         1 EMG      -0.073400
      9 C35         13.5070    -3.6630     0.1390 c3         1 EMG      -0.074400
     10 C43         12.1870    -3.3500    -0.5560 c3         1 EMG      -0.073400
     11 C42         11.2520    -2.5090     0.3020 c3         1 EMG      -0.075400
     12 C41          9.9190    -2.1930    -0.3650 c3         1 EMG      -0.073400
     13 C40          9.0010    -1.3610     0.5200 c3         1 EMG      -0.075400
     14 C7           7.6540    -1.0380    -0.1170 c3         1 EMG      -0.073400
     15 C6           6.7520    -0.2180     0.7970 c3         1 EMG      -0.075400
     16 C5           5.3970     0.1150     0.1860 c3         1 EMG      -0.073400
     17 C4           4.5080     0.9230     1.1240 c3         1 EMG      -0.075400
     18 C3           3.1510     1.2750     0.5280 c3         1 EMG      -0.076400
     19 C2           2.2820     2.0840     1.4820 c3         1 EMG      -0.063400
     20 C1           0.9440     2.4500     0.8630 c3         1 EMG      -0.150400
     21 C20          0.0780     3.3320     1.7390 c          1 EMG       0.678100
     22 N2          -1.0880     3.6980     1.1740 ns         1 EMG      -0.572900
     23 C27         -2.0540     4.5580     1.8190 c3         1 EMG       0.092700
     24 C28         -1.6980     6.0240     1.6000 c3         1 EMG       0.121400
     25 O4          -1.8250     6.3120     0.2240 os         1 EMG      -0.432600
     26 C31         -1.0960     7.4040    -0.2270 c6         1 EMG       0.314900
     27 O9           0.2840     7.1630    -0.2300 os         1 EMG      -0.401600
     28 C30          0.6950     6.0970    -1.0720 c6         1 EMG       0.148100
     29 C29          2.1840     5.9020    -0.8910 c3         1 EMG       0.146400
     30 O8           2.4190     5.4970     0.4360 oh         1 EMG      -0.587800
     31 C34          0.3090     6.3570    -2.5220 c6         1 EMG       0.123100
     32 O7           1.0500     7.4490    -3.0100 oh         1 EMG      -0.592800
     33 C33         -1.1940     6.6190    -2.5980 c6         1 EMG       0.116100
     34 O6          -1.5060     6.9400    -3.9340 oh         1 EMG      -0.611800
     35 C32         -1.5690     7.7450    -1.6430 c6         1 EMG       0.091100
     36 O5          -2.9610     7.9360    -1.7150 oh         1 EMG      -0.590800
     37 C26         -3.4950     4.2340     1.3780 c3         1 EMG       0.104100
     38 O3          -4.3830     5.0220     2.1360 oh         1 EMG      -0.581800
     39 C25         -3.8160     2.7230     1.4370 c3         1 EMG       0.112100
     40 O2          -3.2510     2.0670     0.3150 oh         1 EMG      -0.595800
     41 C24         -5.3110     2.4400     1.5470 c3         1 EMG      -0.108400
     42 C23         -5.6260     0.9510     1.6190 c3         1 EMG      -0.066400
     43 C22         -7.1230     0.7060     1.7830 c3         1 EMG      -0.157400
     44 C21         -7.4590    -0.7620     1.9320 c          1 EMG       0.663100
     45 O1          -6.8410    -1.4960     2.6960 o          1 EMG      -0.606100
     46 N1          -8.4830    -1.2020     1.1880 ns         1 EMG      -0.575900
     47 C19         -8.9690    -2.5650     1.2340 c3         1 EMG       0.105000
     48 C18        -10.1320    -2.7520     0.2740 c3         1 EMG      -0.094400
     49 C17        -10.6860    -4.1700     0.3140 c3         1 EMG      -0.072400
     50 C16        -11.8490    -4.3760    -0.6480 c3         1 EMG      -0.075400
     51 C15        -12.4190    -5.7870    -0.6000 c3         1 EMG      -0.073400
     52 C14        -13.5840    -5.9830    -1.5720 c3         1 EMG      -0.030100
     53 C13        -14.1480    -7.3750    -1.5140 ca         1 EMG      -0.078300
     54 C12        -13.6680    -8.3770    -2.3540 ca         1 EMG      -0.125500
     55 C11        -14.1610    -9.6740    -2.2740 ca         1 EMG      -0.127000
     56 C10        -15.1460    -9.9900    -1.3480 ca         1 EMG      -0.129000
     57 C9         -15.6330    -8.9990    -0.5040 ca         1 EMG      -0.127000
     58 C8         -15.1370    -7.7050    -0.5890 ca         1 EMG      -0.125500
     59 H1          22.1770    -8.1840    -0.4370 hc         1 EMG       0.031367
     60 H2          20.8000    -8.9430    -1.2330 hc         1 EMG       0.031367
     61 H3          21.5150    -7.4850    -1.9120 hc         1 EMG       0.031367
     62 H4          20.0670    -7.6380     0.7880 hc         1 EMG       0.036700
     63 H5          20.7820    -6.1900     0.1210 hc         1 EMG       0.036700
     64 H6          19.2200    -6.3170    -1.8310 hc         1 EMG       0.036700
     65 H7          18.5040    -7.7680    -1.1630 hc         1 EMG       0.036700
     66 H8          17.8010    -6.4850     0.8700 hc         1 EMG       0.036700
     67 H9          18.5170    -5.0350     0.2040 hc         1 EMG       0.036700
     68 H10         16.9500    -5.1570    -1.7460 hc         1 EMG       0.036700
     69 H11         16.2340    -6.6090    -1.0800 hc         1 EMG       0.036700
     70 H12         15.5460    -5.3300     0.9630 hc         1 EMG       0.036700
     71 H13         16.2580    -3.8790     0.2930 hc         1 EMG       0.036700
     72 H14         14.6710    -3.9950    -1.6410 hc         1 EMG       0.037200
     73 H15         13.9620    -5.4480    -0.9730 hc         1 EMG       0.037200
     74 H16         13.3020    -4.1770     1.0840 hc         1 EMG       0.036700
     75 H17         14.0030    -2.7240     0.4100 hc         1 EMG       0.036700
     76 H18         12.3870    -2.8300    -1.5000 hc         1 EMG       0.036700
     77 H19         11.6890    -4.2870    -0.8290 hc         1 EMG       0.036700
     78 H20         11.0650    -3.0300     1.2480 hc         1 EMG       0.036700
     79 H21         11.7530    -1.5720     0.5710 hc         1 EMG       0.036700
     80 H22         10.0990    -1.6630    -1.3070 hc         1 EMG       0.037200
     81 H23          9.4170    -3.1280    -0.6360 hc         1 EMG       0.037200
     82 H24          8.8330    -1.8910     1.4640 hc         1 EMG       0.037200
     83 H25          9.5060    -0.4260     0.7890 hc         1 EMG       0.037200
     84 H26          7.8150    -0.4960    -1.0550 hc         1 EMG       0.037200
     85 H27          7.1480    -1.9700    -0.3900 hc         1 EMG       0.037200
     86 H28          6.6000    -0.7630     1.7350 hc         1 EMG       0.037700
     87 H29          7.2630     0.7120     1.0710 hc         1 EMG       0.037700
     88 H30          5.5430     0.6710    -0.7470 hc         1 EMG       0.036200
     89 H31          4.8840    -0.8120    -0.0930 hc         1 EMG       0.036200
     90 H32          4.3610     0.3620     2.0540 hc         1 EMG       0.039700
     91 H33          5.0270     1.8450     1.4090 hc         1 EMG       0.039700
     92 H34          3.2970     1.8410    -0.3980 hc         1 EMG       0.033700
     93 H35          2.6290     0.3560     0.2400 hc         1 EMG       0.033700
     94 H36          2.1280     1.5170     2.4040 hc         1 EMG       0.055700
     95 H37          2.8110     2.9960     1.7660 hc         1 EMG       0.055700
     96 H38          1.1110     2.9670    -0.0870 hc         1 EMG       0.054700
     97 H39          0.3810     1.5450     0.6110 hc         1 EMG       0.054700
     98 H40         -1.3090     3.3400     0.2590 hn         1 EMG       0.323500
     99 H41         -1.9960     4.3700     2.8970 h1         1 EMG       0.072700
    100 H42         -2.3550     6.6710     2.1910 h1         1 EMG       0.055200
    101 H43         -0.6730     6.1840     1.9480 h1         1 EMG       0.055200
    102 H44         -1.2310     8.2690     0.4380 h2         1 EMG       0.069700
    103 H45          0.2010     5.1660    -0.7710 h1         1 EMG       0.056700
    104 H46          2.5100     5.1410    -1.6130 h1         1 EMG       0.035200
    105 H47          2.7210     6.8270    -1.1340 h1         1 EMG       0.035200
    106 H48          3.3600     5.3240     0.5320 ho         1 EMG       0.406000
    107 H49          0.5320     5.4430    -3.0940 h1         1 EMG       0.048700
    108 H50          0.6900     7.6890    -3.8710 ho         1 EMG       0.422000
    109 H51         -1.7140     5.7000    -2.2890 h1         1 EMG       0.063700
    110 H52         -2.3990     7.3010    -3.9570 ho         1 EMG       0.429000
    111 H53         -1.0330     8.6520    -1.9490 h1         1 EMG       0.064700
    112 H54         -3.1670     8.8290    -1.4240 ho         1 EMG       0.412000
    113 H55         -3.6420     4.5550     0.3410 h1         1 EMG       0.089700
    114 H56         -4.2920     4.7890     3.0670 ho         1 EMG       0.401000
    115 H57         -3.3170     2.2850     2.3110 h1         1 EMG       0.080700
    116 H58         -3.7750     2.2990    -0.4610 ho         1 EMG       0.401000
    117 H59         -5.7060     2.9260     2.4420 hc         1 EMG       0.049200
    118 H60         -5.8350     2.8930     0.6970 hc         1 EMG       0.049200
    119 H61         -5.2740     0.4420     0.7180 hc         1 EMG       0.060200
    120 H62         -5.0900     0.5070     2.4610 hc         1 EMG       0.060200
    121 H63         -7.4790     1.2170     2.6840 hc         1 EMG       0.054200
    122 H64         -7.6690     1.1470     0.9450 hc         1 EMG       0.054200
    123 H65         -8.9440    -0.5560     0.5680 hn         1 EMG       0.310500
    124 H66         -8.1620    -3.2580     0.9780 h1         1 EMG       0.052200
    125 H67         -9.2860    -2.8140     2.2520 h1         1 EMG       0.052200
    126 H68        -10.9280    -2.0430     0.5230 hc         1 EMG       0.041200
    127 H69         -9.8080    -2.5140    -0.7450 hc         1 EMG       0.041200
    128 H70         -9.8880    -4.8820     0.0770 hc         1 EMG       0.043700
    129 H71        -11.0110    -4.4050     1.3330 hc         1 EMG       0.043700
    130 H72        -12.6420    -3.6560    -0.4180 hc         1 EMG       0.037700
    131 H73        -11.5210    -4.1510    -1.6690 hc         1 EMG       0.037700
    132 H74        -11.6310    -6.5120    -0.8310 hc         1 EMG       0.044200
    133 H75        -12.7540    -6.0130     0.4180 hc         1 EMG       0.044200
    134 H76        -14.3690    -5.2560    -1.3410 hc         1 EMG       0.045200
    135 H77        -13.2440    -5.7630    -2.5870 hc         1 EMG       0.045200
    136 H78        -12.9040    -8.1420    -3.0860 ha         1 EMG       0.128000
    137 H79        -13.7780   -10.4360    -2.9410 ha         1 EMG       0.129000
    138 H80        -15.5340   -10.9980    -1.2860 ha         1 EMG       0.130000
    139 H81        -16.4040    -9.2320     0.2190 ha         1 EMG       0.129000
    140 H82        -15.5270    -6.9390     0.0720 ha         1 EMG       0.128000
@<TRIPOS>BOND
     1     1    21 2   
     2     2     3 1   
     3     2    59 1   
     4     2    60 1   
     5     2    61 1   
     6     3     4 1   
     7     3    62 1   
     8     3    63 1   
     9     4     5 1   
    10     4    64 1   
    11     4    65 1   
    12     5     6 1   
    13     5    66 1   
    14     5    67 1   
    15     6     7 1   
    16     6    68 1   
    17     6    69 1   
    18     7     8 1   
    19     7    70 1   
    20     7    71 1   
    21     8     9 1   
    22     8    72 1   
    23     8    73 1   
    24     9    10 1   
    25     9    74 1   
    26     9    75 1   
    27    10    11 1   
    28    10    76 1   
    29    10    77 1   
    30    11    12 1   
    31    11    78 1   
    32    11    79 1   
    33    12    13 1   
    34    12    80 1   
    35    12    81 1   
    36    13    14 1   
    37    13    82 1   
    38    13    83 1   
    39    14    15 1   
    40    14    84 1   
    41    14    85 1   
    42    15    16 1   
    43    15    86 1   
    44    15    87 1   
    45    16    17 1   
    46    16    88 1   
    47    16    89 1   
    48    17    18 1   
    49    17    90 1   
    50    17    91 1   
    51    18    19 1   
    52    18    92 1   
    53    18    93 1   
    54    19    20 1   
    55    19    94 1   
    56    19    95 1   
    57    20    21 1   
    58    20    96 1   
    59    20    97 1   
    60    21    22 1   
    61    22    23 1   
    62    22    98 1   
    63    23    24 1   
    64    23    37 1   
    65    23    99 1   
    66    24    25 1   
    67    24   100 1   
    68    24   101 1   
    69    25    26 1   
    70    26    27 1   
    71    26    35 1   
    72    26   102 1   
    73    27    28 1   
    74    28    29 1   
    75    28    31 1   
    76    28   103 1   
    77    29    30 1   
    78    29   104 1   
    79    29   105 1   
    80    30   106 1   
    81    31    32 1   
    82    31    33 1   
    83    31   107 1   
    84    32   108 1   
    85    33    34 1   
    86    33    35 1   
    87    33   109 1   
    88    34   110 1   
    89    35    36 1   
    90    35   111 1   
    91    36   112 1   
    92    37    38 1   
    93    37    39 1   
    94    37   113 1   
    95    38   114 1   
    96    39    40 1   
    97    39    41 1   
    98    39   115 1   
    99    40   116 1   
   100    41    42 1   
   101    41   117 1   
   102    41   118 1   
   103    42    43 1   
   104    42   119 1   
   105    42   120 1   
   106    43    44 1   
   107    43   121 1   
   108    43   122 1   
   109    44    45 2   
   110    44    46 1   
   111    46    47 1   
   112    46   123 1   
   113    47    48 1   
   114    47   124 1   
   115    47   125 1   
   116    48    49 1   
   117    48   126 1   
   118    48   127 1   
   119    49    50 1   
   120    49   128 1   
   121    49   129 1   
   122    50    51 1   
   123    50   130 1   
   124    50   131 1   
   125    51    52 1   
   126    51   132 1   
   127    51   133 1   
   128    52    53 1   
   129    52   134 1   
   130    52   135 1   
   131    53    54 ar  
   132    53    58 ar  
   133    54    55 ar  
   134    54   136 1   
   135    55    56 ar  
   136    55   137 1   
   137    56    57 ar  
   138    56   138 1   
   139    57    58 ar  
   140    57   139 1   
   141    58   140 1   
@<TRIPOS>SUBSTRUCTURE
     1 EMG         1 TEMP              0 ****  ****    0 ROOT
