@<TRIPOS>MOLECULE
EMH
   70    75     1     0     0
SMALL
bcc


@<TRIPOS>ATOM
      1 C4          -6.2560    -1.4310    -0.2210 ca         1 EMH      -0.075000
      2 C5          -7.9710     0.2630     0.0140 ca         1 EMH      -0.008000
      3 C6          -7.5870    -1.0820    -0.1480 ca         1 EMH      -0.118000
      4 C7          -3.8660    -0.4020    -0.1710 cc         1 EMH      -0.235400
      5 C8          -3.4700     0.9050    -0.0430 cd         1 EMH       0.014700
      6 C10          1.2330    -0.4690    -0.2380 ca         1 EMH       0.163600
      7 C13         -0.5240    -2.0830    -0.3440 ca         1 EMH      -0.065000
      8 C15         -1.4940    -1.0810    -0.2680 ca         1 EMH      -0.171600
      9 C17         -2.0700     1.4210    -0.0530 c6         1 EMH       0.048500
     10 C21         -1.8230     2.2190     1.2380 c3         1 EMH      -0.083100
     11 C22         -1.8990     2.3350    -1.2820 c3         1 EMH      -0.083100
     12 C24          2.2880    -3.1830     1.2010 c3         1 EMH      -0.085100
     13 C26          5.3510     0.6760    -0.4730 c6         1 EMH       0.197500
     14 C28          4.7850    -0.4930    -1.2740 c6         1 EMH      -0.093400
     15 N19        -10.4820     0.8280     0.1620 n1         1 EMH      -0.368800
     16 C18         -9.3570     0.5820     0.0930 cg         1 EMH       0.236800
     17 C3          -7.0320     1.2860     0.1040 ca         1 EMH      -0.099000
     18 C1          -5.7020     0.9180     0.0220 ca         1 EMH      -0.067200
     19 C2          -5.2940    -0.4240    -0.1360 ca         1 EMH      -0.029800
     20 N9          -4.5680     1.6920     0.0730 na         1 EMH      -0.157400
     21 C14         -1.0960     0.2530    -0.1480 ca         1 EMH      -0.016300
     22 C16         -2.9200    -1.4880    -0.2990 c          1 EMH       0.627900
     23 O20         -3.2690    -2.6490    -0.4170 o          1 EMH      -0.539100
     24 C12          0.2680     0.5280    -0.1460 ca         1 EMH      -0.188000
     25 C11          0.8290    -1.8170    -0.3150 ca         1 EMH      -0.092300
     26 C23          1.8140    -2.9530    -0.2330 c3         1 EMH      -0.020100
     27 N25          2.6020    -0.1710    -0.2270 nh         1 EMH      -0.661000
     28 C29          3.0430     1.0060     0.4910 c6         1 EMH       0.198300
     29 C27          4.5290     0.8830     0.8050 c6         1 EMH      -0.093400
     30 C30          3.2950    -0.3090    -1.5000 c6         1 EMH       0.198300
     31 N31          6.7860     0.5470    -0.2800 n3         1 EMH      -0.739600
     32 C32          7.4620     1.7910     0.0250 c6         1 EMH       0.138300
     33 C34          8.9650     1.5810    -0.0440 c6         1 EMH       0.129400
     34 O36          9.3860     0.5620     0.8280 os         1 EMH      -0.401600
     35 C35          8.7240    -0.6450     0.5470 c6         1 EMH       0.129400
     36 C33          7.2160    -0.4900     0.6360 c6         1 EMH       0.138300
     37 H4          -5.9620    -2.4630    -0.3410 ha         1 EMH       0.162000
     38 H6          -8.3520    -1.8440    -0.2120 ha         1 EMH       0.144000
     39 H13         -0.8610    -3.1120    -0.3990 ha         1 EMH       0.155000
     40 H21         -1.9300     1.5890     2.1200 hc         1 EMH       0.043867
     41 H21A        -0.8240     2.6500     1.2490 hc         1 EMH       0.043867
     42 H21B        -2.5200     3.0530     1.3330 hc         1 EMH       0.043867
     43 H22         -2.5990     3.1710    -1.2640 hc         1 EMH       0.043867
     44 H22A        -0.8990     2.7640    -1.3100 hc         1 EMH       0.043867
     45 H22B        -2.0540     1.7850    -2.2090 hc         1 EMH       0.043867
     46 H24          1.4540    -3.4480     1.8510 hc         1 EMH       0.036700
     47 H24A         3.0150    -3.9940     1.2420 hc         1 EMH       0.036700
     48 H24B         2.7610    -2.2870     1.6010 hc         1 EMH       0.036700
     49 H26          5.2160     1.5700    -1.0950 h1         1 EMH       0.049700
     50 H28          5.2990    -0.5580    -2.2350 hc         1 EMH       0.053950
     51 H28A         4.9440    -1.4410    -0.7540 hc         1 EMH       0.053950
     52 H3          -7.3400     2.3130     0.2480 ha         1 EMH       0.144000
     53 H12          0.5990     1.5570    -0.0830 ha         1 EMH       0.130000
     54 H23          2.6820    -2.7870    -0.8710 hc         1 EMH       0.045200
     55 H23A         1.3380    -3.8610    -0.6080 hc         1 EMH       0.045200
     56 H29          2.8660     1.9330    -0.0810 h1         1 EMH       0.035950
     57 H29A         2.4750     1.0910     1.4190 h1         1 EMH       0.035950
     58 H27          4.6680     0.0400     1.4870 hc         1 EMH       0.053950
     59 H27A         4.8600     1.7830     1.3290 hc         1 EMH       0.053950
     60 H30          3.1210     0.5790    -2.1290 h1         1 EMH       0.035950
     61 H30A         2.8880    -1.1550    -2.0530 h1         1 EMH       0.035950
     62 H32          7.1800     2.5480    -0.7130 h1         1 EMH       0.039450
     63 H32A         7.1980     2.1910     1.0190 h1         1 EMH       0.039450
     64 H34          9.2440     1.3440    -1.0810 h1         1 EMH       0.049950
     65 H34A         9.4890     2.4930     0.2470 h1         1 EMH       0.049950
     66 H35          8.9870    -1.0090    -0.4570 h1         1 EMH       0.049950
     67 H35A         9.0720    -1.3810     1.2750 h1         1 EMH       0.049950
     68 H33          6.9390    -0.2770     1.6820 h1         1 EMH       0.039450
     69 H33A         6.7540    -1.4430     0.3670 h1         1 EMH       0.039450
     70 H9          -4.5560     2.6900     0.1930 hn         1 EMH       0.303700
@<TRIPOS>BOND
     1     1     3 ar  
     2     1    19 ar  
     3     1    37 1   
     4     2     3 ar  
     5     2    16 1   
     6     2    17 ar  
     7     3    38 1   
     8     4     5 2   
     9     4    19 1   
    10     4    22 1   
    11     5     9 1   
    12     5    20 1   
    13     6    24 ar  
    14     6    25 ar  
    15     6    27 1   
    16     7     8 ar  
    17     7    25 ar  
    18     7    39 1   
    19     8    21 ar  
    20     8    22 1   
    21     9    10 1   
    22     9    11 1   
    23     9    21 1   
    24    10    40 1   
    25    10    41 1   
    26    10    42 1   
    27    11    43 1   
    28    11    44 1   
    29    11    45 1   
    30    12    26 1   
    31    12    46 1   
    32    12    47 1   
    33    12    48 1   
    34    13    14 1   
    35    13    29 1   
    36    13    31 1   
    37    13    49 1   
    38    14    30 1   
    39    14    50 1   
    40    14    51 1   
    41    15    16 3   
    42    17    18 ar  
    43    17    52 1   
    44    18    19 ar  
    45    18    20 1   
    46    20    70 1   
    47    21    24 ar  
    48    22    23 2   
    49    24    53 1   
    50    25    26 1   
    51    26    54 1   
    52    26    55 1   
    53    27    28 1   
    54    27    30 1   
    55    28    29 1   
    56    28    56 1   
    57    28    57 1   
    58    29    58 1   
    59    29    59 1   
    60    30    60 1   
    61    30    61 1   
    62    31    32 1   
    63    31    36 1   
    64    32    33 1   
    65    32    62 1   
    66    32    63 1   
    67    33    34 1   
    68    33    64 1   
    69    33    65 1   
    70    34    35 1   
    71    35    36 1   
    72    35    66 1   
    73    35    67 1   
    74    36    68 1   
    75    36    69 1   
@<TRIPOS>SUBSTRUCTURE
     1 EMH         1 TEMP              0 ****  ****    0 ROOT
