@<TRIPOS>MOLECULE
EMH
   70    75     1     0     0
SMALL
No Charge or Current Charge


@<TRIPOS>ATOM
      1 C4          -6.2940    -1.4670     0.0660 ca         1 EMH      -0.057000
      2 C5          -8.1310     0.1630     0.0160 ca         1 EMH      -0.008000
      3 C6          -7.6750    -1.1780     0.0880 ca         1 EMH      -0.100000
      4 C7          -3.9640    -0.3460    -0.0730 cc         1 EMH      -0.235400
      5 C8          -3.5930     0.9820    -0.1680 cd         1 EMH       0.014700
      6 C10          1.2160    -0.4250    -0.2120 ca         1 EMH       0.302000
      7 C13         -0.5610    -2.0760    -0.0610 ca         1 EMH      -0.047000
      8 C15         -1.5420    -1.0600    -0.0980 ca         1 EMH      -0.171600
      9 C17         -2.1580     1.4660    -0.2400 c6         1 EMH       0.048500
     10 C21         -1.9000     2.4330     0.9560 c3         1 EMH      -0.083100
     11 C22         -1.9730     2.2700    -1.5640 c3         1 EMH      -0.083100
     12 C24          2.3960    -3.1210     1.3590 c3         1 EMH      -0.085100
     13 C26          5.3950     0.7430    -0.4490 c6         1 EMH       0.197500
     14 C28          4.7610    -0.2540    -1.4530 c6         1 EMH      -0.093400
     15 N19        -10.6870     0.6690     0.0590 n1         1 EMH      -0.458000
     16 C18         -9.5400     0.4470     0.0390 cg         1 EMH       0.326000
     17 C3          -7.1980     1.2220    -0.0780 ca         1 EMH      -0.081000
     18 C1          -5.8330     0.9050    -0.0970 ca         1 EMH      -0.067200
     19 C2          -5.4000    -0.3900    -0.0280 ca         1 EMH      -0.029800
     20 N9          -4.7620     1.7820    -0.1840 na         1 EMH      -0.207700
     21 C14         -1.1370     0.2980    -0.1940 ca         1 EMH      -0.016300
     22 C16         -3.0000    -1.4570    -0.0310 c          1 EMH       0.627900
     23 O20         -3.3480    -2.6290     0.0530 o          1 EMH      -0.539100
     24 C12          0.2450     0.5870    -0.2490 ca         1 EMH      -0.170000
     25 C11          0.8120    -1.7740    -0.1200 ca         1 EMH      -0.092300
     26 C23          1.8260    -2.9190    -0.0580 c3         1 EMH      -0.020100
     27 N25          2.5800    -0.0700    -0.2700 nh         1 EMH      -0.799400
     28 C29          3.1400     0.8690     0.7350 c6         1 EMH       0.198300
     29 C27          4.6570     0.6370     0.9170 c6         1 EMH      -0.093400
     30 C30          3.2450     0.0050    -1.5950 c6         1 EMH       0.198300
     31 N31          6.8860     0.5930    -0.3660 n3         1 EMH      -0.739600
     32 C32          7.5510     1.7350     0.3410 c6         1 EMH       0.138300
     33 C34          9.1020     1.5900     0.3280 c6         1 EMH       0.152600
     34 O36          9.4940     0.3140     0.8890 os         1 EMH      -0.448000
     35 C35          8.9200    -0.8090     0.1760 c6         1 EMH       0.152600
     36 C33          7.3640    -0.7230     0.1800 c6         1 EMH       0.138300
     37 H4          -5.9420    -2.4930     0.1200 ha         1 EMH       0.144000
     38 H6          -8.3900    -1.9950     0.1600 ha         1 EMH       0.126000
     39 H13         -0.8640    -3.1180     0.0180 ha         1 EMH       0.137000
     40 H21         -2.0060     1.9060     1.9120 hc         1 EMH       0.043867
     41 H21A        -0.8950     2.8680     0.9290 hc         1 EMH       0.043867
     42 H21B        -2.6110     3.2680     0.9610 hc         1 EMH       0.043867
     43 H22         -2.6860     3.1000    -1.6350 hc         1 EMH       0.043867
     44 H22A        -0.9700     2.7010    -1.6510 hc         1 EMH       0.043867
     45 H22B        -2.1320     1.6250    -2.4360 hc         1 EMH       0.043867
     46 H24          1.5920    -3.3470     2.0690 hc         1 EMH       0.036700
     47 H24A         3.1090    -3.9540     1.3690 hc         1 EMH       0.036700
     48 H24B         2.9160    -2.2200     1.7010 hc         1 EMH       0.036700
     49 H26          5.1850     1.7490    -0.8440 h1         1 EMH       0.049700
     50 H28          5.2440    -0.1580    -2.4340 hc         1 EMH       0.053950
     51 H28A         4.9100    -1.2890    -1.1230 hc         1 EMH       0.053950
     52 H3          -7.5290     2.2570    -0.1340 ha         1 EMH       0.126000
     53 H12          0.5800     1.6150    -0.3280 ha         1 EMH       0.112000
     54 H23          2.6550    -2.7420    -0.7540 hc         1 EMH       0.045200
     55 H23A         1.3620    -3.8570    -0.3860 hc         1 EMH       0.045200
     56 H29          2.9650     1.9090     0.4190 h1         1 EMH       0.035950
     57 H29A         2.6400     0.7280     1.7040 h1         1 EMH       0.035950
     58 H27          4.8130    -0.3530     1.3630 hc         1 EMH       0.053950
     59 H27A         5.0440     1.3740     1.6310 hc         1 EMH       0.053950
     60 H30          3.0810     0.9960    -2.0430 h1         1 EMH       0.035950
     61 H30A         2.8180    -0.7420    -2.2790 h1         1 EMH       0.035950
     62 H32          7.2810     2.6890    -0.1330 h1         1 EMH       0.039450
     63 H32A         7.2240     1.7890     1.3900 h1         1 EMH       0.039450
     64 H34          9.4770     1.6630    -0.7040 h1         1 EMH       0.049950
     65 H34A         9.5590     2.3980     0.9160 h1         1 EMH       0.049950
     66 H35          9.2930    -0.8100    -0.8580 h1         1 EMH       0.049950
     67 H35A         9.2440    -1.7440     0.6560 h1         1 EMH       0.049950
     68 H33          7.0170    -0.8660     1.2140 h1         1 EMH       0.039450
     69 H33A         6.9760    -1.5630    -0.4130 h1         1 EMH       0.039450
     70 H9          -4.8040     2.7930    -0.2470 hn         1 EMH       0.354000
@<TRIPOS>BOND
     1     1     3 ar  
     2     1    19 ar  
     3     1    37 1   
     4     2     3 ar  
     5     2    16 1   
     6     2    17 ar  
     7     3    38 1   
     8     4     5 2   
     9     4    19 1   
    10     4    22 1   
    11     5     9 1   
    12     5    20 1   
    13     6    24 ar  
    14     6    25 ar  
    15     6    27 1   
    16     7     8 ar  
    17     7    25 ar  
    18     7    39 1   
    19     8    21 ar  
    20     8    22 1   
    21     9    10 1   
    22     9    11 1   
    23     9    21 1   
    24    10    40 1   
    25    10    41 1   
    26    10    42 1   
    27    11    43 1   
    28    11    44 1   
    29    11    45 1   
    30    12    26 1   
    31    12    46 1   
    32    12    47 1   
    33    12    48 1   
    34    13    14 1   
    35    13    29 1   
    36    13    31 1   
    37    13    49 1   
    38    14    30 1   
    39    14    50 1   
    40    14    51 1   
    41    15    16 3   
    42    17    18 ar  
    43    17    52 1   
    44    18    19 ar  
    45    18    20 1   
    46    20    70 1   
    47    21    24 ar  
    48    22    23 2   
    49    24    53 1   
    50    25    26 1   
    51    26    54 1   
    52    26    55 1   
    53    27    28 1   
    54    27    30 1   
    55    28    29 1   
    56    28    56 1   
    57    28    57 1   
    58    29    58 1   
    59    29    59 1   
    60    30    60 1   
    61    30    61 1   
    62    31    32 1   
    63    31    36 1   
    64    32    33 1   
    65    32    62 1   
    66    32    63 1   
    67    33    34 1   
    68    33    64 1   
    69    33    65 1   
    70    34    35 1   
    71    35    36 1   
    72    35    66 1   
    73    35    67 1   
    74    36    68 1   
    75    36    69 1   
@<TRIPOS>SUBSTRUCTURE
     1 EMH         1 TEMP              0 ****  ****    0 ROOT
