@<TRIPOS>MOLECULE
EMI
   58    60     1     0     0
SMALL
abcg2


@<TRIPOS>ATOM
      1 C20         -5.1760     2.2390    15.6690 ca         1 EMI      -0.274500
      2 C21         -5.8180     3.2880    15.0320 ca         1 EMI      -0.006500
      3 C22         -5.0670     4.1840    14.2850 ca         1 EMI      -0.130000
      4 O3          -7.4580     1.6220    16.7850 o          1 EMI      -0.544000
      5 S           -6.1020     1.1040    16.6600 sy         1 EMI       1.125600
      6 O2          -5.3590     0.8080    17.8760 o          1 EMI      -0.544000
      7 N4          -6.0210    -0.2690    15.7420 n8         1 EMI      -1.004100
      8 C19         -3.7990     2.0750    15.5720 ca         1 EMI      -0.006500
      9 C18         -3.0660     2.9770    14.8220 ca         1 EMI      -0.130000
     10 C17         -3.6880     4.0430    14.1700 ca         1 EMI      -0.024300
     11 C16         -2.8760     5.0480    13.4080 c3         1 EMI      -0.068100
     12 C15         -2.3590     6.1490    14.3440 c3         1 EMI       0.105000
     13 N3          -1.5730     7.1420    13.6540 ns         1 EMI      -0.494900
     14 C           -2.1100     8.1670    12.9820 c          1 EMI       0.580100
     15 O           -3.3080     8.4070    12.9380 o          1 EMI      -0.604100
     16 C1          -1.1240     9.0390    12.2100 c3         1 EMI       0.131800
     17 N            0.2570     8.8730    12.5610 nu         1 EMI      -0.984200
     18 C2           0.8530     9.5320    13.5980 ca         1 EMI       0.339000
     19 C14          0.1140    10.2220    14.5690 ca         1 EMI      -0.199000
     20 C13          0.7570    10.8880    15.5980 ca         1 EMI      -0.023500
     21 C5           2.1450    10.8830    15.7150 ca         1 EMI      -0.207600
     22 C4           2.8760    10.1640    14.7650 ca         1 EMI      -0.023500
     23 C3           2.2520     9.5130    13.7250 ca         1 EMI      -0.199000
     24 C6           2.8850    11.5750    16.8000 c          1 EMI       0.619700
     25 O1           4.0080    11.2310    17.1330 o          1 EMI      -0.588100
     26 N1           2.2420    12.6200    17.3850 ns         1 EMI      -0.167000
     27 C7           2.7970    13.3890    18.4310 ca         1 EMI      -0.105000
     28 C12          3.0630    12.8210    19.6690 ca         1 EMI      -0.059000
     29 C11          3.5930    13.5780    20.7020 ca         1 EMI      -0.144000
     30 C10          3.8430    14.9280    20.4870 ca         1 EMI      -0.075000
     31 C9           3.5790    15.5080    19.2580 ca         1 EMI      -0.171000
     32 C8           3.0630    14.7490    18.2010 ca         1 EMI       0.272000
     33 N2           2.7680    15.3260    16.9840 nv         1 EMI      -1.075000
     34 H1          -6.8890     3.4150    15.1100 ha         1 EMI       0.137500
     35 H2          -5.5650     5.0050    13.7850 ha         1 EMI       0.121500
     36 H3          -6.2420    -1.0960    16.2900 hn         1 EMI       0.473000
     37 H4          -6.6110    -0.2260    14.9160 hn         1 EMI       0.473000
     38 H5          -3.2990     1.2540    16.0690 ha         1 EMI       0.137500
     39 H6          -1.9930     2.8510    14.7410 ha         1 EMI       0.121500
     40 H7          -3.4850     5.5000    12.6230 hc         1 EMI       0.059700
     41 H8          -2.0260     4.5610    12.9260 hc         1 EMI       0.059700
     42 H9          -1.7350     5.7100    15.1220 h1         1 EMI       0.062200
     43 H10         -3.1990     6.6360    14.8420 h1         1 EMI       0.062200
     44 H11         -0.5770     7.0010    13.5790 hn         1 EMI       0.328500
     45 H12         -1.4530    10.0790    12.3060 h1         1 EMI       0.074700
     46 H13         -1.2380     8.7810    11.1560 h1         1 EMI       0.074700
     47 H14          0.8660     8.5200    11.8410 hn         1 EMI       0.488000
     48 H15         -0.9670    10.2430    14.5350 ha         1 EMI       0.119500
     49 H16          0.1380    11.3920    16.3310 ha         1 EMI       0.125000
     50 H17          3.9550    10.1290    14.8340 ha         1 EMI       0.125000
     51 H18          2.8460     8.9810    12.9910 ha         1 EMI       0.119500
     52 H19          1.3900    12.9600    16.9640 hn         1 EMI       0.157000
     53 H20          2.8390    11.7730    19.8220 ha         1 EMI       0.123000
     54 H21          3.7990    13.1230    21.6620 ha         1 EMI       0.118000
     55 H22          4.2500    15.5390    21.2830 ha         1 EMI       0.111000
     56 H23          3.7870    16.5590    19.1000 ha         1 EMI       0.111000
     57 H24          3.2160    16.2120    16.8110 hn         1 EMI       0.447500
     58 H25          2.8300    14.7180    16.1820 hn         1 EMI       0.447500
@<TRIPOS>BOND
     1     1     2 ar  
     2     1     5 1   
     3     1     8 ar  
     4     2     3 ar  
     5     2    34 1   
     6     3    10 ar  
     7     3    35 1   
     8     4     5 2   
     9     5     6 2   
    10     5     7 1   
    11     7    36 1   
    12     7    37 1   
    13     8     9 ar  
    14     8    38 1   
    15     9    10 ar  
    16     9    39 1   
    17    10    11 1   
    18    11    12 1   
    19    11    40 1   
    20    11    41 1   
    21    12    13 1   
    22    12    42 1   
    23    12    43 1   
    24    13    14 1   
    25    13    44 1   
    26    14    15 2   
    27    14    16 1   
    28    16    17 1   
    29    16    45 1   
    30    16    46 1   
    31    17    18 1   
    32    17    47 1   
    33    18    19 ar  
    34    18    23 ar  
    35    19    20 ar  
    36    19    48 1   
    37    20    21 ar  
    38    20    49 1   
    39    21    22 ar  
    40    21    24 1   
    41    22    23 ar  
    42    22    50 1   
    43    23    51 1   
    44    24    25 2   
    45    24    26 1   
    46    26    27 1   
    47    26    52 1   
    48    27    28 ar  
    49    27    32 ar  
    50    28    29 ar  
    51    28    53 1   
    52    29    30 ar  
    53    29    54 1   
    54    30    31 ar  
    55    30    55 1   
    56    31    32 ar  
    57    31    56 1   
    58    32    33 1   
    59    33    57 1   
    60    33    58 1   
@<TRIPOS>SUBSTRUCTURE
     1 EMI         1 TEMP              0 ****  ****    0 ROOT
