@<TRIPOS>MOLECULE
EMI
   58    60     1     0     0
SMALL
No Charge or Current Charge


@<TRIPOS>ATOM
      1 C20         -4.8020     2.8670    16.3530 ca         1 EMI      -0.274500
      2 C21         -5.3880     4.0560    15.8710 ca         1 EMI      -0.006500
      3 C22         -4.7150     4.8320    14.9120 ca         1 EMI      -0.130000
      4 O3          -6.7190     2.6420    18.2050 o          1 EMI      -0.544000
      5 S           -5.6530     1.8660    17.5760 sy         1 EMI       1.125600
      6 O2          -4.6980     1.0610    18.3390 o          1 EMI      -0.544000
      7 N4          -6.4550     0.7970    16.6330 n8         1 EMI      -1.004100
      8 C19         -3.5400     2.4650    15.8680 ca         1 EMI      -0.006500
      9 C18         -2.8740     3.2470    14.9090 ca         1 EMI      -0.130000
     10 C17         -3.4570     4.4330    14.4240 ca         1 EMI      -0.024300
     11 C16         -2.7310     5.2810    13.3900 c3         1 EMI      -0.068100
     12 C15         -1.8900     6.3920    14.0480 c3         1 EMI       0.105000
     13 N3          -1.1690     7.2030    13.0640 ns         1 EMI      -0.494900
     14 C           -1.7240     8.1960    12.2850 c          1 EMI       0.580100
     15 O           -2.9070     8.5030    12.3670 o          1 EMI      -0.604100
     16 C1          -0.7260     8.9020    11.3080 c3         1 EMI       0.131800
     17 N            0.7140     8.9010    11.7550 nu         1 EMI      -0.984200
     18 C2           1.2510     9.4930    12.8990 ca         1 EMI       0.339000
     19 C14          0.4830    10.3180    13.7330 ca         1 EMI      -0.199000
     20 C13          1.0480    10.8970    14.8830 ca         1 EMI      -0.023500
     21 C5           2.4040    10.6570    15.2150 ca         1 EMI      -0.207600
     22 C4           3.1670     9.8240    14.3650 ca         1 EMI      -0.023500
     23 C3           2.5910     9.2510    13.2190 ca         1 EMI      -0.199000
     24 C6           3.0540    11.2600    16.4460 c          1 EMI       0.619700
     25 O1           4.2230    11.0180    16.7280 o          1 EMI      -0.588100
     26 N1           2.2540    12.1040    17.2080 ns         1 EMI      -0.167000
     27 C7           2.4910    12.7740    18.4470 ca         1 EMI      -0.105000
     28 C12          3.4540    12.3030    19.3690 ca         1 EMI      -0.059000
     29 C11          3.6460    12.9580    20.5970 ca         1 EMI      -0.144000
     30 C10          2.8770    14.0830    20.9250 ca         1 EMI      -0.075000
     31 C9           1.9120    14.5540    20.0200 ca         1 EMI      -0.171000
     32 C8           1.7150    13.9100    18.7880 ca         1 EMI       0.272000
     33 N2           0.7720    14.4180    17.9290 nv         1 EMI      -1.075000
     34 H1          -6.3610     4.3850    16.2350 ha         1 EMI       0.137500
     35 H2          -5.1740     5.7490    14.5480 ha         1 EMI       0.121500
     36 H3          -7.4020     0.9000    16.9900 hn         1 EMI       0.473000
     37 H4          -6.4790     1.2760    15.7370 hn         1 EMI       0.473000
     38 H5          -3.0740     1.5490    16.2290 ha         1 EMI       0.137500
     39 H6          -1.9000     2.9290    14.5430 ha         1 EMI       0.121500
     40 H7          -3.4550     5.7320    12.7020 hc         1 EMI       0.059700
     41 H8          -2.0750     4.6520    12.7760 hc         1 EMI       0.059700
     42 H9          -1.1590     5.9390    14.7310 h1         1 EMI       0.062200
     43 H10         -2.5430     7.0460    14.6420 h1         1 EMI       0.062200
     44 H11         -0.1690     7.0720    12.9490 hn         1 EMI       0.328500
     45 H12         -1.0800     9.9310    11.1630 h1         1 EMI       0.074700
     46 H13         -0.8150     8.3820    10.3450 h1         1 EMI       0.074700
     47 H14          1.3860     8.4040    11.1620 hn         1 EMI       0.488000
     48 H15         -0.5570    10.5230    13.4990 ha         1 EMI       0.119500
     49 H16          0.4140    11.5270    15.5020 ha         1 EMI       0.125000
     50 H17          4.2120     9.6160    14.5890 ha         1 EMI       0.125000
     51 H18          3.1960     8.6130    12.5800 ha         1 EMI       0.119500
     52 H19          1.3250    12.2460    16.8380 hn         1 EMI       0.157000
     53 H20          4.0480    11.4180    19.1580 ha         1 EMI       0.123000
     54 H21          4.3890    12.5860    21.3000 ha         1 EMI       0.118000
     55 H22          3.0250    14.5880    21.8770 ha         1 EMI       0.111000
     56 H23          1.3180    15.4260    20.2800 ha         1 EMI       0.111000
     57 H24          0.3330    15.3090    18.1580 hn         1 EMI       0.447500
     58 H25          0.8160    14.1820    16.9420 hn         1 EMI       0.447500
@<TRIPOS>BOND
     1     1     2 ar  
     2     1     5 1   
     3     1     8 ar  
     4     2     3 ar  
     5     2    34 1   
     6     3    10 ar  
     7     3    35 1   
     8     4     5 2   
     9     5     6 2   
    10     5     7 1   
    11     7    36 1   
    12     7    37 1   
    13     8     9 ar  
    14     8    38 1   
    15     9    10 ar  
    16     9    39 1   
    17    10    11 1   
    18    11    12 1   
    19    11    40 1   
    20    11    41 1   
    21    12    13 1   
    22    12    42 1   
    23    12    43 1   
    24    13    14 1   
    25    13    44 1   
    26    14    15 2   
    27    14    16 1   
    28    16    17 1   
    29    16    45 1   
    30    16    46 1   
    31    17    18 1   
    32    17    47 1   
    33    18    19 ar  
    34    18    23 ar  
    35    19    20 ar  
    36    19    48 1   
    37    20    21 ar  
    38    20    49 1   
    39    21    22 ar  
    40    21    24 1   
    41    22    23 ar  
    42    22    50 1   
    43    23    51 1   
    44    24    25 2   
    45    24    26 1   
    46    26    27 1   
    47    26    52 1   
    48    27    28 ar  
    49    27    32 ar  
    50    28    29 ar  
    51    28    53 1   
    52    29    30 ar  
    53    29    54 1   
    54    30    31 ar  
    55    30    55 1   
    56    31    32 ar  
    57    31    56 1   
    58    32    33 1   
    59    33    57 1   
    60    33    58 1   
@<TRIPOS>SUBSTRUCTURE
     1 EMI         1 TEMP              0 ****  ****    0 ROOT
