@<TRIPOS>MOLECULE
EMJ
   47    47     1     0     0
SMALL
No Charge or Current Charge


@<TRIPOS>ATOM
      1 C2          -4.0510    -1.2170    -0.3070 c          1 EMJ       0.577500
      2 C3          -3.5030     0.1540    -0.5530 cc         1 EMJ      -0.232400
      3 C4          -4.2250     1.2680    -0.1480 cd         1 EMJ       0.074900
      4 C5          -5.5600     1.1770     0.5390 c          1 EMJ       0.557500
      5 C6          -6.0910    -0.1670     0.7740 cc         1 EMJ      -0.427200
      6 C7          -5.3960    -1.2900     0.3850 cd         1 EMJ       0.115900
      7 O8          -6.1800     2.1730     0.8880 o          1 EMJ      -0.528100
      8 O9          -3.4430    -2.2290    -0.6460 o          1 EMJ      -0.466100
      9 O10         -3.7740     2.5400    -0.3380 oh         1 EMJ      -0.502100
     10 O11         -5.8890    -2.5350     0.6050 oh         1 EMJ      -0.477100
     11 C12         -2.1530     0.2220    -1.2480 c3         1 EMJ      -0.013200
     12 C13         -0.9710     0.0810    -0.2650 c3         1 EMJ      -0.070400
     13 C14          0.4080     0.1630    -0.9560 c3         1 EMJ      -0.074400
     14 C15          1.5880     0.0230     0.0300 c3         1 EMJ      -0.074400
     15 C16          2.9660     0.1050    -0.6610 c3         1 EMJ      -0.074400
     16 C17          4.1460    -0.0350     0.3250 c3         1 EMJ      -0.074400
     17 C18          5.5250     0.0470    -0.3660 c3         1 EMJ      -0.074400
     18 C19          6.7050    -0.0930     0.6200 c3         1 EMJ      -0.074400
     19 C20          8.0840    -0.0110    -0.0710 c3         1 EMJ      -0.075400
     20 C21          9.2640    -0.1510     0.9150 c3         1 EMJ      -0.074400
     21 C22         10.6400    -0.0690     0.2260 c3         1 EMJ      -0.088100
     22 H1          -7.0540    -0.2080     1.2700 ha         1 EMJ       0.212000
     23 H2          -4.4600     3.1410     0.0340 ho         1 EMJ       0.495000
     24 H3          -6.7550    -2.4330     1.0540 ho         1 EMJ       0.477000
     25 H4          -2.0750    -0.5520    -2.0220 hc         1 EMJ       0.058200
     26 H5          -1.0420     0.8710     0.4930 hc         1 EMJ       0.042200
     27 H6           0.4780    -0.6260    -1.7160 hc         1 EMJ       0.038700
     28 H7           0.4910     1.1220    -1.4830 hc         1 EMJ       0.038700
     29 H8           1.5180     0.8120     0.7890 hc         1 EMJ       0.037700
     30 H9           1.5050    -0.9370     0.5560 hc         1 EMJ       0.037700
     31 H10          3.0360    -0.6840    -1.4200 hc         1 EMJ       0.037200
     32 H11          3.0490     1.0640    -1.1870 hc         1 EMJ       0.037200
     33 H12          4.0770     0.7540     1.0850 hc         1 EMJ       0.036700
     34 H13          4.0640    -0.9950     0.8510 hc         1 EMJ       0.036700
     35 H14          5.5950    -0.7420    -1.1250 hc         1 EMJ       0.036700
     36 H15          5.6070     1.0060    -0.8920 hc         1 EMJ       0.036700
     37 H16          6.6350     0.6960     1.3800 hc         1 EMJ       0.036700
     38 H17          6.6230    -1.0530     1.1470 hc         1 EMJ       0.036700
     39 H18          8.1540    -0.8000    -0.8300 hc         1 EMJ       0.036700
     40 H19          8.1660     0.9480    -0.5970 hc         1 EMJ       0.036700
     41 H20          9.1990     0.6380     1.6750 hc         1 EMJ       0.036700
     42 H21          9.1860    -1.1100     1.4420 hc         1 EMJ       0.036700
     43 H22         11.4440    -0.1730     0.9640 hc         1 EMJ       0.031367
     44 H23         10.7500    -0.8690    -0.5170 hc         1 EMJ       0.031367
     45 H24         10.7630     0.8950    -0.2820 hc         1 EMJ       0.031367
     46 H25         -2.0530     1.1740    -1.7840 hc         1 EMJ       0.058200
     47 H26         -1.0520    -0.8770     0.2640 hc         1 EMJ       0.042200
@<TRIPOS>BOND
     1     1     2 1   
     2     1     6 1   
     3     1     8 2   
     4     2     3 2   
     5     2    11 1   
     6     3     4 1   
     7     3     9 1   
     8     4     5 1   
     9     4     7 2   
    10     5     6 2   
    11     5    22 1   
    12     6    10 1   
    13     9    23 1   
    14    10    24 1   
    15    11    12 1   
    16    11    25 1   
    17    11    46 1   
    18    12    13 1   
    19    12    26 1   
    20    12    47 1   
    21    13    14 1   
    22    13    27 1   
    23    13    28 1   
    24    14    15 1   
    25    14    29 1   
    26    14    30 1   
    27    15    16 1   
    28    15    31 1   
    29    15    32 1   
    30    16    17 1   
    31    16    33 1   
    32    16    34 1   
    33    17    18 1   
    34    17    35 1   
    35    17    36 1   
    36    18    19 1   
    37    18    37 1   
    38    18    38 1   
    39    19    20 1   
    40    19    39 1   
    41    19    40 1   
    42    20    21 1   
    43    20    41 1   
    44    20    42 1   
    45    21    43 1   
    46    21    44 1   
    47    21    45 1   
@<TRIPOS>SUBSTRUCTURE
     1 EMJ         1 TEMP              0 ****  ****    0 ROOT
