@<TRIPOS>MOLECULE
EMJ
   47    47     1     0     0
SMALL
abcg2


@<TRIPOS>ATOM
      1 C2          -4.0310    -1.2040    -0.4260 c          1 EMJ       0.577500
      2 C3          -3.4360     0.1180    -0.5690 cc         1 EMJ      -0.232400
      3 C4          -4.0940     1.1760    -0.0570 cd         1 EMJ       0.074900
      4 C5          -5.4240     1.0540     0.6270 c          1 EMJ       0.557500
      5 C6          -6.0230    -0.2510     0.7430 cc         1 EMJ      -0.427200
      6 C7          -5.3810    -1.3230     0.2440 cd         1 EMJ       0.115900
      7 O8          -5.9330     2.0770     1.0520 o          1 EMJ      -0.528100
      8 O9          -3.4950    -2.2170    -0.8210 o          1 EMJ      -0.466100
      9 O10         -3.6100     2.4050    -0.1210 oh         1 EMJ      -0.502100
     10 O11         -5.8170    -2.5640     0.2730 oh         1 EMJ      -0.477100
     11 C12         -2.0960     0.2400    -1.2280 c3         1 EMJ      -0.013200
     12 C13         -0.9390     0.1620    -0.2290 c3         1 EMJ      -0.070400
     13 C14          0.4200     0.2120    -0.9130 c3         1 EMJ      -0.074400
     14 C15          1.5860     0.1740     0.0680 c3         1 EMJ      -0.074400
     15 C16          2.9450     0.1480    -0.6200 c3         1 EMJ      -0.074400
     16 C17          4.1160     0.1210     0.3550 c3         1 EMJ      -0.074400
     17 C18          5.4700     0.0430    -0.3390 c3         1 EMJ      -0.074400
     18 C19          6.6470     0.0170     0.6280 c3         1 EMJ      -0.074400
     19 C20          7.9950    -0.0900    -0.0720 c3         1 EMJ      -0.075400
     20 C21          9.1790    -0.1060     0.8870 c3         1 EMJ      -0.074400
     21 C22         10.5160    -0.2340     0.1700 c3         1 EMJ      -0.088100
     22 H1          -6.9870    -0.3310     1.2320 ha         1 EMJ       0.212000
     23 H2          -4.2460     3.0130     0.2930 ho         1 EMJ       0.495000
     24 H3          -6.6810    -2.6190     0.7050 ho         1 EMJ       0.477000
     25 H4          -1.9820    -0.5510    -1.9710 hc         1 EMJ       0.058200
     26 H5          -1.0240     0.9840     0.4890 hc         1 EMJ       0.042200
     27 H6           0.5050    -0.6300    -1.6090 hc         1 EMJ       0.038700
     28 H7           0.4890     1.1190    -1.5250 hc         1 EMJ       0.038700
     29 H8           1.5280     1.0410     0.7350 hc         1 EMJ       0.037700
     30 H9           1.4900    -0.7090     0.7110 hc         1 EMJ       0.037700
     31 H10          3.0010    -0.7290    -1.2750 hc         1 EMJ       0.037200
     32 H11          3.0390     1.0210    -1.2760 hc         1 EMJ       0.037200
     33 H12          4.0810     1.0130     0.9910 hc         1 EMJ       0.036700
     34 H13          4.0050    -0.7350     1.0300 hc         1 EMJ       0.036700
     35 H14          5.5010    -0.8530    -0.9700 hc         1 EMJ       0.036700
     36 H15          5.5800     0.8940    -1.0200 hc         1 EMJ       0.036700
     37 H16          6.6280     0.9200     1.2490 hc         1 EMJ       0.036700
     38 H17          6.5300    -0.8260     1.3190 hc         1 EMJ       0.036700
     39 H18          8.0140    -1.0000    -0.6840 hc         1 EMJ       0.036700
     40 H19          8.1090     0.7450    -0.7730 hc         1 EMJ       0.036700
     41 H20          9.1690     0.8080     1.4890 hc         1 EMJ       0.036700
     42 H21          9.0610    -0.9350     1.5920 hc         1 EMJ       0.036700
     43 H22         11.3520    -0.2370     0.8700 hc         1 EMJ       0.031367
     44 H23         10.5650    -1.1600    -0.4070 hc         1 EMJ       0.031367
     45 H24         10.6710     0.5930    -0.5260 hc         1 EMJ       0.031367
     46 H25         -2.0380     1.1830    -1.7750 hc         1 EMJ       0.058200
     47 H26         -1.0190    -0.7630     0.3510 hc         1 EMJ       0.042200
@<TRIPOS>BOND
     1     1     2 1   
     2     1     6 1   
     3     1     8 2   
     4     2     3 2   
     5     2    11 1   
     6     3     4 1   
     7     3     9 1   
     8     4     5 1   
     9     4     7 2   
    10     5     6 2   
    11     5    22 1   
    12     6    10 1   
    13     9    23 1   
    14    10    24 1   
    15    11    12 1   
    16    11    25 1   
    17    11    46 1   
    18    12    13 1   
    19    12    26 1   
    20    12    47 1   
    21    13    14 1   
    22    13    27 1   
    23    13    28 1   
    24    14    15 1   
    25    14    29 1   
    26    14    30 1   
    27    15    16 1   
    28    15    31 1   
    29    15    32 1   
    30    16    17 1   
    31    16    33 1   
    32    16    34 1   
    33    17    18 1   
    34    17    35 1   
    35    17    36 1   
    36    18    19 1   
    37    18    37 1   
    38    18    38 1   
    39    19    20 1   
    40    19    39 1   
    41    19    40 1   
    42    20    21 1   
    43    20    41 1   
    44    20    42 1   
    45    21    43 1   
    46    21    44 1   
    47    21    45 1   
@<TRIPOS>SUBSTRUCTURE
     1 EMJ         1 TEMP              0 ****  ****    0 ROOT
