@<TRIPOS>MOLECULE
EML
   56    59     1     0     0
SMALL
abcg2


@<TRIPOS>ATOM
      1 C1          -6.6490    29.2280    76.2830 cc         1 EML      -0.154800
      2 N1          -2.7600    32.7610    79.1990 nu         1 EML      -0.888900
      3 O1          -2.1420    36.9360    85.1630 oh         1 EML      -0.638000
      4 S1          -2.3460    32.6690    81.9350 ss         1 EML       0.351100
      5 C2          -5.5160    29.7160    79.1660 cc         1 EML      -0.209000
      6 N2          -4.0680    31.8300    76.7230 nd         1 EML      -0.275600
      7 C3          -4.8930    30.1200    80.3050 cd         1 EML       0.367300
      8 N3          -5.2000    30.3610    77.9840 na         1 EML       0.166100
      9 C4           1.1840    36.5760    83.9930 c3         1 EML       0.191800
     10 N4          -7.8120    27.8000    75.0940 na         1 EML      -0.010200
     11 C5          -3.6670    31.7410    79.1940 cc         1 EML       0.663900
     12 N5          -8.5430    27.9790    76.2100 nd         1 EML      -0.513800
     13 C6          -4.2550    31.3680    77.9540 cc         1 EML      -0.169000
     14 N6          -1.3000    33.7880    82.5980 nc         1 EML      -0.501100
     15 C7          -5.6400    30.1850    76.6880 cc         1 EML      -0.054300
     16 N7          -3.9770    31.1410    80.3160 nd         1 EML      -0.760000
     17 C8          -7.8460    28.8450    76.9380 cc         1 EML       0.254900
     18 N8          -0.0610    36.3780    83.2450 n3         1 EML      -0.729600
     19 C9          -4.9160    31.1060    75.9440 cd         1 EML      -0.042400
     20 C10         -6.6740    28.5180    75.0900 cd         1 EML      -0.136000
     21 C11         -2.1350    33.2570    80.3150 cc         1 EML       0.165000
     22 C12         -1.2550    34.3150    80.3420 cd         1 EML      -0.273000
     23 C14         -0.8170    34.5810    81.6630 cd         1 EML       0.326300
     24 C15         -0.9370    37.5740    83.1340 c3         1 EML       0.219200
     25 C16          1.6360    35.3040    84.7010 c3         1 EML      -0.091100
     26 C17         -1.4290    37.9980    84.5260 c3         1 EML       0.171600
     27 C18         -2.1700    37.2490    82.2800 c3         1 EML      -0.105100
     28 C20         -0.2070    38.7820    82.5180 c3         1 EML      -0.105100
     29 HN1         -2.5500    33.1940    78.3100 hn         1 EML       0.530000
     30 HO1         -2.5050    37.2780    85.9880 ho         1 EML       0.430000
     31 H2          -6.2360    28.9170    79.1240 h4         1 EML       0.158000
     32 H4           1.9920    36.9430    83.3420 h1         1 EML       0.021700
     33 H5           1.0270    37.3470    84.7430 h1         1 EML       0.021700
     34 HN4         -8.1370    27.1680    74.3790 hn         1 EML       0.377000
     35 H8          -8.2270    29.1780    77.8900 h4         1 EML       0.042100
     36 H9          -4.9970    31.2720    74.8810 h4         1 EML       0.229000
     37 H10         -5.9740    28.4790    74.2730 h4         1 EML       0.162000
     38 H12         -0.9620    34.8790    79.4690 ha         1 EML       0.140000
     39 H13          0.2450    36.3430    81.1300 h1         1 EML       0.040200
     40 H13A         1.1570    35.1890    82.0590 h1         1 EML       0.040200
     41 H16          2.5710    35.4810    85.2380 hc         1 EML       0.039700
     42 H16A         0.8790    34.9790    85.4180 hc         1 EML       0.039700
     43 H15          1.8060    34.4860    83.9980 hc         1 EML       0.039700
     44 H17         -0.5930    38.3170    85.1530 h1         1 EML       0.014700
     45 H17A        -2.0840    38.8650    84.3900 h1         1 EML       0.014700
     46 H18         -2.8520    38.1000    82.3020 hc         1 EML       0.040533
     47 H18A        -1.9030    37.0690    81.2390 hc         1 EML       0.040533
     48 H18B        -2.6940    36.3750    82.6600 hc         1 EML       0.040533
     49 H19         -4.2540    29.0360    82.0320 hc         1 EML       0.056033
     50 H19A        -5.5320    30.2070    82.3420 hc         1 EML       0.056033
     51 H19B        -5.9160    28.6800    81.5260 hc         1 EML       0.056033
     52 H20         -0.8900    39.6250    82.4000 hc         1 EML       0.040533
     53 H20A         0.6270    39.1080    83.1420 hc         1 EML       0.040533
     54 H20B         0.1850    38.5290    81.5310 hc         1 EML       0.040533
     55 C19         -5.1710    29.4680    81.6240 c3         1 EML      -0.134400
     56 C13          0.1790    35.6690    81.9930 c3         1 EML       0.160500
@<TRIPOS>BOND
     1     1    15 1   
     2     1    17 1   
     3     1    20 2   
     4     2    11 1   
     5     2    21 1   
     6     2    29 1   
     7     3    26 1   
     8     3    30 1   
     9     4    14 1   
    10     4    21 1   
    11     5     7 2   
    12     5     8 1   
    13     5    31 1   
    14     6    13 2   
    15     6    19 1   
    16     7    16 1   
    17     7    55 1   
    18     8    13 1   
    19     8    15 1   
    20     9    18 1   
    21     9    25 1   
    22     9    32 1   
    23     9    33 1   
    24    10    12 1   
    25    10    20 1   
    26    10    34 1   
    27    11    13 1   
    28    11    16 2   
    29    12    17 2   
    30    14    23 2   
    31    15    19 2   
    32    17    35 1   
    33    18    24 1   
    34    18    56 1   
    35    19    36 1   
    36    20    37 1   
    37    21    22 2   
    38    22    23 1   
    39    22    38 1   
    40    23    56 1   
    41    24    26 1   
    42    24    27 1   
    43    24    28 1   
    44    25    41 1   
    45    25    42 1   
    46    25    43 1   
    47    26    44 1   
    48    26    45 1   
    49    27    46 1   
    50    27    47 1   
    51    27    48 1   
    52    28    52 1   
    53    28    53 1   
    54    28    54 1   
    55    39    56 1   
    56    40    56 1   
    57    49    55 1   
    58    50    55 1   
    59    51    55 1   
@<TRIPOS>SUBSTRUCTURE
     1 EML         1 TEMP              0 ****  ****    0 ROOT
