@<TRIPOS>MOLECULE
EML
   56    59     1     0     0
SMALL
No Charge or Current Charge


@<TRIPOS>ATOM
      1 C1          -6.7670    29.8700    76.4970 cc         1 EML      -0.154800
      2 N1          -2.0040    31.9690    79.4720 nu         1 EML      -0.888900
      3 O1          -2.6590    36.8710    84.7900 oh         1 EML      -0.638000
      4 S1          -0.8770    31.8420    82.0670 ss         1 EML       0.351100
      5 C2          -5.4130    29.7500    79.3320 cc         1 EML      -0.209000
      6 N2          -3.5260    31.5190    77.0150 nd         1 EML      -0.275600
      7 C3          -4.7200    29.9640    80.5300 cd         1 EML       0.367300
      8 N3          -5.0650    30.5810    78.2720 na         1 EML       0.166100
      9 C4           0.8240    36.8070    84.1190 c3         1 EML       0.191800
     10 N4          -8.3580    29.1840    75.1600 na         1 EML      -0.010200
     11 C5          -3.1800    31.2860    79.4920 cc         1 EML       0.663900
     12 N5          -8.8620    28.9680    76.4440 nd         1 EML      -0.513800
     13 C6          -3.8490    31.1590    78.2530 cc         1 EML      -0.169000
     14 N6          -0.1060    33.2320    82.6310 nc         1 EML      -0.501100
     15 C7          -5.5280    30.4310    76.9860 cc         1 EML      -0.054300
     16 N7          -3.5900    30.7900    80.6350 nd         1 EML      -0.760000
     17 C8          -7.8810    29.3950    77.2150 cc         1 EML       0.254900
     18 N8          -0.1890    36.3310    83.1300 n3         1 EML      -0.729600
     19 C9          -4.5610    31.0440    76.2140 cd         1 EML      -0.042400
     20 C10         -7.0750    29.7500    75.1740 cd         1 EML      -0.136000
     21 C11         -1.2840    32.5570    80.4960 cc         1 EML       0.165000
     22 C12         -0.8440    33.8430    80.4960 cd         1 EML      -0.273000
     23 C14         -0.1920    34.1860    81.7130 cd         1 EML       0.326300
     24 C15         -1.2540    37.3430    82.7450 c3         1 EML       0.219200
     25 C16          1.5590    35.6770    84.8720 c3         1 EML      -0.091100
     26 C17         -2.0490    37.9060    83.9920 c3         1 EML       0.171600
     27 C18         -2.3100    36.7030    81.7930 c3         1 EML      -0.105100
     28 C20         -0.6260    38.5650    82.0130 c3         1 EML      -0.105100
     29 HN1         -1.8860    32.4090    78.5620 hn         1 EML       0.530000
     30 HO1         -3.0710    37.3140    85.5630 ho         1 EML       0.430000
     31 H2          -6.2190    29.0470    79.2140 h4         1 EML       0.158000
     32 H4           1.5700    37.4380    83.6180 h1         1 EML       0.021700
     33 H5           0.3530    37.4250    84.8900 h1         1 EML       0.021700
     34 HN4         -8.9000    28.9480    74.3290 hn         1 EML       0.377000
     35 H8          -8.0330    29.3700    78.2840 h4         1 EML       0.042100
     36 H9          -4.5550    31.1840    75.1370 h4         1 EML       0.229000
     37 H10         -6.5230    30.0000    74.2750 h4         1 EML       0.162000
     38 H12         -0.9760    34.5290    79.6690 ha         1 EML       0.140000
     39 H13          0.3910    36.1340    81.0610 h1         1 EML       0.040200
     40 H13A         1.4940    35.3830    82.1670 h1         1 EML       0.040200
     41 H16          2.2040    36.1040    85.6490 hc         1 EML       0.039700
     42 H16A         0.8380    35.0090    85.3580 hc         1 EML       0.039700
     43 H15          2.1900    35.0810    84.2050 hc         1 EML       0.039700
     44 H17         -1.3820    38.5140    84.6170 h1         1 EML       0.014700
     45 H17A        -2.8280    38.5910    83.6320 h1         1 EML       0.014700
     46 H18         -3.1620    37.3780    81.6440 hc         1 EML       0.040533
     47 H18A        -1.8920    36.4990    80.8020 hc         1 EML       0.040533
     48 H18B        -2.6950    35.7640    82.2070 hc         1 EML       0.040533
     49 H19         -4.3930    28.4570    82.0300 hc         1 EML       0.056033
     50 H19A        -5.1410    29.9430    82.6440 hc         1 EML       0.056033
     51 H19B        -6.1010    28.7920    81.7040 hc         1 EML       0.056033
     52 H20         -1.4030    39.2820    81.7220 hc         1 EML       0.040533
     53 H20A         0.0830    39.0940    82.6600 hc         1 EML       0.040533
     54 H20B        -0.0950    38.2690    81.1010 hc         1 EML       0.040533
     55 C19         -5.1100    29.2520    81.7940 c3         1 EML      -0.134400
     56 C13          0.4260    35.5540    81.9900 c3         1 EML       0.160500
@<TRIPOS>BOND
     1     1    15 1   
     2     1    17 1   
     3     1    20 2   
     4     2    11 1   
     5     2    21 1   
     6     2    29 1   
     7     3    26 1   
     8     3    30 1   
     9     4    14 1   
    10     4    21 1   
    11     5     7 2   
    12     5     8 1   
    13     5    31 1   
    14     6    13 2   
    15     6    19 1   
    16     7    16 1   
    17     7    55 1   
    18     8    13 1   
    19     8    15 1   
    20     9    18 1   
    21     9    25 1   
    22     9    32 1   
    23     9    33 1   
    24    10    12 1   
    25    10    20 1   
    26    10    34 1   
    27    11    13 1   
    28    11    16 2   
    29    12    17 2   
    30    14    23 2   
    31    15    19 2   
    32    17    35 1   
    33    18    24 1   
    34    18    56 1   
    35    19    36 1   
    36    20    37 1   
    37    21    22 2   
    38    22    23 1   
    39    22    38 1   
    40    23    56 1   
    41    24    26 1   
    42    24    27 1   
    43    24    28 1   
    44    25    41 1   
    45    25    42 1   
    46    25    43 1   
    47    26    44 1   
    48    26    45 1   
    49    27    46 1   
    50    27    47 1   
    51    27    48 1   
    52    28    52 1   
    53    28    53 1   
    54    28    54 1   
    55    39    56 1   
    56    40    56 1   
    57    49    55 1   
    58    50    55 1   
    59    51    55 1   
@<TRIPOS>SUBSTRUCTURE
     1 EML         1 TEMP              0 ****  ****    0 ROOT
