@<TRIPOS>MOLECULE
EMM
   13    12     1     0     0
SMALL
bcc


@<TRIPOS>ATOM
      1 C1          -0.6230    -0.0160    -1.3460 c2         1 EMM       0.052600
      2 C2           1.6580     0.0040    -0.5880 c3         1 EMM       0.097300
      3 C           -0.2310    -0.0210     1.0620 c          1 EMM       1.025600
      4 O           -1.4660    -0.0330     1.2070 o          1 EMM      -0.821300
      5 N            0.2490    -0.0100    -0.2920 n          1 EMM      -0.437000
      6 C3          -0.3070    -0.0080    -2.6510 c2         1 EMM      -0.461000
      7 OXT          0.6370    -0.0180     1.9510 o          1 EMM      -0.821300
      8 H1          -1.6630    -0.0290    -1.0500 h4         1 EMM       0.144000
      9 H2C1         2.2250     0.0050     0.3350 h1         1 EMM       0.015033
     10 H2C2         1.9500    -0.8720    -1.1760 h1         1 EMM       0.015033
     11 H2C3         1.9340     0.8910    -1.1670 h1         1 EMM       0.015033
     12 H3C1        -1.1000    -0.0130    -3.3840 ha         1 EMM       0.087500
     13 H3C2         0.7080     0.0060    -3.0250 ha         1 EMM       0.087500
@<TRIPOS>BOND
     1     1     5 1   
     2     1     6 2   
     3     1     8 1   
     4     2     5 1   
     5     2     9 1   
     6     2    10 1   
     7     2    11 1   
     8     3     4 1   
     9     3     5 1   
    10     3     7 1   
    11     6    12 1   
    12     6    13 1   
@<TRIPOS>SUBSTRUCTURE
     1 EMM         1 TEMP              0 ****  ****    0 ROOT
