@<TRIPOS>MOLECULE
EMM
   13    12     1     0     0
SMALL
No Charge or Current Charge


@<TRIPOS>ATOM
      1 C1          -0.6690    -0.1780    -1.3810 c2         1 EMM       0.002600
      2 C2           1.7180    -0.0610    -0.5480 c3         1 EMM       0.097300
      3 C           -0.2110     0.1760     1.0200 c          1 EMM       0.748000
      4 O           -1.4150     0.2030     1.2260 o          1 EMM      -0.716000
      5 N            0.2520    -0.0190    -0.3100 n          1 EMM      -0.370000
      6 C3          -0.3790    -0.0100    -2.6810 c2         1 EMM      -0.561000
      7 OXT          0.6070     0.3290     1.9140 o          1 EMM      -0.716000
      8 H1          -1.6780    -0.4590    -1.0600 h4         1 EMM       0.194000
      9 H2C1         2.2270    -0.5930     0.2670 h1         1 EMM       0.015033
     10 H2C2         1.9420    -0.5960    -1.4790 h1         1 EMM       0.015033
     11 H2C3         2.1090     0.9620    -0.6150 h1         1 EMM       0.015033
     12 H3C1        -1.1430    -0.1510    -3.4470 ha         1 EMM       0.137500
     13 H3C2         0.6110     0.2830    -3.0300 ha         1 EMM       0.137500
@<TRIPOS>BOND
     1     1     5 1   
     2     1     6 2   
     3     1     8 1   
     4     2     5 1   
     5     2     9 1   
     6     2    10 1   
     7     2    11 1   
     8     3     4 1   
     9     3     5 1   
    10     3     7 1   
    11     6    12 1   
    12     6    13 1   
@<TRIPOS>SUBSTRUCTURE
     1 EMM         1 TEMP              0 ****  ****    0 ROOT
