@<TRIPOS>MOLECULE
EMN
   37    36     1     0     0
SMALL
bcc


@<TRIPOS>ATOM
      1 CAA          6.1190    -1.3510    -0.4830 c3         1 EMN       0.121700
      2 CAB         -6.0800     0.2910    -0.7020 c3         1 EMN      -0.134100
      3 CAC         -0.0800    -0.7490     1.3770 c3         1 EMN      -0.080100
      4 NAD         -4.7990    -1.2200     0.8290 n8         1 EMN      -0.861800
      5 CAE          4.7240     0.3140     0.3700 c3         1 EMN       0.135400
      6 CAF          3.4670     1.1010     0.1060 c3         1 EMN       0.139400
      7 CAG         -3.6270     0.5270    -0.4070 c3         1 EMN       0.146400
      8 CAH          1.1400     0.9370    -0.0480 c3         1 EMN       0.138400
      9 CAI         -1.3070     0.7400    -0.2420 c3         1 EMN       0.138400
     10 OAJ          4.9550    -0.5900    -0.6790 os         1 EMN      -0.393600
     11 OAK          2.3510     0.2480     0.1300 os         1 EMN      -0.394600
     12 OAL         -2.4010    -0.1390    -0.2640 os         1 EMN      -0.386600
     13 CAM         -4.7800    -0.4610    -0.4150 c3         1 EMN       0.155500
     14 CAN         -0.0270    -0.0370     0.0290 c3         1 EMN      -0.059700
     15 HAA          6.0710    -1.9470     0.4360 h1         1 EMN       0.027700
     16 HAAA         6.2240    -2.0310    -1.3280 h1         1 EMN       0.027700
     17 HAAB         7.0180    -0.7260    -0.4290 h1         1 EMN       0.027700
     18 HABA        -6.0550     0.7920    -1.6720 hc         1 EMN       0.038033
     19 HABB        -6.9280    -0.3950    -0.7090 hc         1 EMN       0.038033
     20 HAC         -0.1900    -0.0270     2.1900 hc         1 EMN       0.040700
     21 HACA        -0.9220    -1.4370     1.4270 hc         1 EMN       0.040700
     22 HACB         0.8290    -1.3210     1.5620 hc         1 EMN       0.040700
     23 HNAD        -4.9550    -0.5850     1.6050 hn         1 EMN       0.332800
     24 HNAA        -5.5980    -1.8410     0.8240 hn         1 EMN       0.332800
     25 HAE          5.5550     1.0260     0.4690 h1         1 EMN       0.027700
     26 HAEA         4.6410    -0.2120     1.3330 h1         1 EMN       0.027700
     27 HAF          3.3860     1.8780     0.8790 h1         1 EMN       0.026700
     28 HAFA         3.5440     1.6230    -0.8600 h1         1 EMN       0.026700
     29 HAG         -3.7750     1.2470     0.4150 h1         1 EMN       0.015700
     30 HAGA        -3.6470     1.1110    -1.3390 h1         1 EMN       0.015700
     31 HAH          1.0220     1.7130     0.7240 h1         1 EMN       0.016200
     32 HAHA         1.1330     1.4550    -1.0200 h1         1 EMN       0.016200
     33 HAI         -1.2280     1.2780    -1.1990 h1         1 EMN       0.015200
     34 HAIA        -1.4420     1.5050     0.5390 h1         1 EMN       0.015200
     35 HAM         -4.6120    -1.1740    -1.2300 h1         1 EMN       0.073700
     36 HAN          0.0970    -0.7780    -0.7690 hc         1 EMN       0.073700
     37 HAB         -6.2690     1.0490     0.0620 hc         1 EMN       0.038033
@<TRIPOS>BOND
     1     1    10 1   
     2     1    15 1   
     3     1    16 1   
     4     1    17 1   
     5     2    13 1   
     6     2    18 1   
     7     2    19 1   
     8     2    37 1   
     9     3    14 1   
    10     3    20 1   
    11     3    21 1   
    12     3    22 1   
    13     4    13 1   
    14     4    23 1   
    15     4    24 1   
    16     5     6 1   
    17     5    10 1   
    18     5    25 1   
    19     5    26 1   
    20     6    11 1   
    21     6    27 1   
    22     6    28 1   
    23     7    12 1   
    24     7    13 1   
    25     7    29 1   
    26     7    30 1   
    27     8    11 1   
    28     8    14 1   
    29     8    31 1   
    30     8    32 1   
    31     9    12 1   
    32     9    14 1   
    33     9    33 1   
    34     9    34 1   
    35    13    35 1   
    36    14    36 1   
@<TRIPOS>SUBSTRUCTURE
     1 EMN         1 TEMP              0 ****  ****    0 ROOT
