@<TRIPOS>MOLECULE
EMN
   37    36     1     0     0
SMALL
No Charge or Current Charge


@<TRIPOS>ATOM
      1 CAA          6.0530    -1.5460    -0.8180 c3         1 EMN       0.144900
      2 CAB         -6.1200    -0.0430    -0.9690 c3         1 EMN      -0.134100
      3 CAC         -0.0730    -0.4750     1.6730 c3         1 EMN      -0.080100
      4 NAD         -4.9630    -1.2160     0.8580 n8         1 EMN      -0.972200
      5 CAE          4.8340     0.2000     0.3340 c3         1 EMN       0.158600
      6 CAF          3.6200     1.1470     0.1730 c3         1 EMN       0.162600
      7 CAG         -3.6830     0.5650    -0.4330 c3         1 EMN       0.169600
      8 CAH          1.2000     1.1450     0.1360 c3         1 EMN       0.161600
      9 CAI         -1.3210     0.9430    -0.0700 c3         1 EMN       0.161600
     10 OAJ          4.9590    -0.6150    -0.8500 os         1 EMN      -0.440000
     11 OAK          2.4060     0.3760     0.2730 os         1 EMN      -0.441000
     12 OAL         -2.3980    -0.0080    -0.1240 os         1 EMN      -0.433000
     13 CAM         -4.7610    -0.5640    -0.4610 c3         1 EMN       0.155500
     14 CAN         -0.0120     0.1930     0.2740 c3         1 EMN      -0.059700
     15 HAA          5.9440    -2.2460     0.0210 h1         1 EMN       0.027700
     16 HAAA         6.0850    -2.1290    -1.7470 h1         1 EMN       0.027700
     17 HAAB         7.0100    -1.0200    -0.7110 h1         1 EMN       0.027700
     18 HABA        -6.0130     0.3840    -1.9740 hc         1 EMN       0.038033
     19 HABB        -6.8550    -0.8550    -1.0270 hc         1 EMN       0.038033
     20 HAC         -0.1970     0.2800     2.4590 hc         1 EMN       0.040700
     21 HACA        -0.9130    -1.1770     1.7380 hc         1 EMN       0.040700
     22 HACB         0.8450    -1.0380     1.8810 hc         1 EMN       0.040700
     23 HNAD        -5.2360    -0.5030     1.5420 hn         1 EMN       0.388000
     24 HNAA        -5.7850    -1.8280     0.8040 hn         1 EMN       0.388000
     25 HAE          5.7380     0.8070     0.4740 h1         1 EMN       0.027700
     26 HAEA         4.6980    -0.4210     1.2280 h1         1 EMN       0.027700
     27 HAF          3.6540     1.9040     0.9670 h1         1 EMN       0.026700
     28 HAFA         3.6810     1.6630    -0.7940 h1         1 EMN       0.026700
     29 HAG         -3.9610     1.3220     0.3120 h1         1 EMN       0.015700
     30 HAGA        -3.6490     1.0530    -1.4160 h1         1 EMN       0.015700
     31 HAH          1.1450     1.9240     0.9080 h1         1 EMN       0.016200
     32 HAHA         1.1720     1.6320    -0.8470 h1         1 EMN       0.016200
     33 HAI         -1.2110     1.4430    -1.0410 h1         1 EMN       0.015200
     34 HAIA        -1.5170     1.7100     0.6910 h1         1 EMN       0.015200
     35 HAM         -4.4180    -1.3330    -1.1700 h1         1 EMN       0.073700
     36 HAN          0.1130    -0.6000    -0.4740 hc         1 EMN       0.073700
     37 HAB         -6.5150     0.7380    -0.3070 hc         1 EMN       0.038033
@<TRIPOS>BOND
     1     1    10 1   
     2     1    15 1   
     3     1    16 1   
     4     1    17 1   
     5     2    13 1   
     6     2    18 1   
     7     2    19 1   
     8     2    37 1   
     9     3    14 1   
    10     3    20 1   
    11     3    21 1   
    12     3    22 1   
    13     4    13 1   
    14     4    23 1   
    15     4    24 1   
    16     5     6 1   
    17     5    10 1   
    18     5    25 1   
    19     5    26 1   
    20     6    11 1   
    21     6    27 1   
    22     6    28 1   
    23     7    12 1   
    24     7    13 1   
    25     7    29 1   
    26     7    30 1   
    27     8    11 1   
    28     8    14 1   
    29     8    31 1   
    30     8    32 1   
    31     9    12 1   
    32     9    14 1   
    33     9    33 1   
    34     9    34 1   
    35    13    35 1   
    36    14    36 1   
@<TRIPOS>SUBSTRUCTURE
     1 EMN         1 TEMP              0 ****  ****    0 ROOT
