@<TRIPOS>MOLECULE
EMO
   30    32     1     0     0
SMALL
abcg2


@<TRIPOS>ATOM
      1 C1           1.3330    -0.1680    -2.4060 ca         1 EMO       0.235100
      2 O1           2.6650    -0.2180    -2.4100 oh         1 EMO      -0.489100
      3 C2           0.6330    -0.1500    -3.6060 ca         1 EMO      -0.263000
      4 C3          -0.7510    -0.1010    -3.6180 ca         1 EMO       0.209100
      5 O3          -1.3560    -0.0850    -4.8090 oh         1 EMO      -0.523100
      6 C4          -1.4550    -0.0730    -2.4160 ca         1 EMO      -0.212000
      7 C5          -0.7630    -0.0890    -1.2220 ca         1 EMO      -0.045600
      8 C6          -1.5730    -0.0590     0.0290 c          1 EMO       0.586300
      9 O6          -2.7840    -0.0330    -0.0200 o          1 EMO      -0.508100
     10 C7          -0.8550    -0.0610     1.3220 ca         1 EMO      -0.085600
     11 C8          -1.5840    -0.0250     2.4930 ca         1 EMO      -0.114000
     12 C9          -0.9350    -0.0200     3.7320 ca         1 EMO      -0.016300
     13 C10         -1.7360     0.0370     4.9960 c3         1 EMO      -0.055800
     14 C16          0.4450    -0.0510     3.7630 ca         1 EMO      -0.154000
     15 C17          1.2010    -0.0960     2.5870 ca         1 EMO       0.219100
     16 O17          2.5220    -0.1360     2.7020 oh         1 EMO      -0.546100
     17 C18          0.5470    -0.0990     1.3420 ca         1 EMO      -0.266600
     18 C19          1.3420    -0.1440     0.1090 c          1 EMO       0.626300
     19 O19          2.5700    -0.1850     0.1820 o          1 EMO      -0.555100
     20 C20          0.6410    -0.1350    -1.1770 ca         1 EMO      -0.212600
     21 HO1          2.9910    -0.2440    -3.3150 ho         1 EMO       0.472000
     22 H2           1.1660    -0.1730    -4.5500 ha         1 EMO       0.136000
     23 HO3         -2.3120    -0.0490    -4.7110 ho         1 EMO       0.478000
     24 H4          -2.5370    -0.0400    -2.4090 ha         1 EMO       0.143000
     25 H8          -2.6650     0.0010     2.4520 ha         1 EMO       0.137000
     26 H101        -2.2820     0.9790     5.0610 hc         1 EMO       0.050033
     27 H102        -2.4730    -0.7640     5.0290 hc         1 EMO       0.050033
     28 H103        -1.1070    -0.0460     5.8800 hc         1 EMO       0.050033
     29 H16          0.9680    -0.0490     4.7120 ha         1 EMO       0.134000
     30 H17          2.8840    -0.1650     1.7810 ho         1 EMO       0.521000
@<TRIPOS>BOND
     1     1     2 1   
     2     1     3 ar  
     3     1    20 ar  
     4     2    21 1   
     5     3     4 ar  
     6     3    22 1   
     7     4     5 1   
     8     4     6 ar  
     9     5    23 1   
    10     6     7 ar  
    11     6    24 1   
    12     7     8 1   
    13     7    20 ar  
    14     8     9 2   
    15     8    10 1   
    16    10    11 ar  
    17    10    17 ar  
    18    11    12 ar  
    19    11    25 1   
    20    12    13 1   
    21    12    14 ar  
    22    13    26 1   
    23    13    27 1   
    24    13    28 1   
    25    14    15 ar  
    26    14    29 1   
    27    15    16 1   
    28    15    17 ar  
    29    16    30 1   
    30    17    18 1   
    31    18    19 2   
    32    18    20 1   
@<TRIPOS>SUBSTRUCTURE
     1 EMO         1 TEMP              0 ****  ****    0 ROOT
