@<TRIPOS>MOLECULE
EMO
   30    32     1     0     0
SMALL
No Charge or Current Charge


@<TRIPOS>ATOM
      1 C1           1.3520    -0.1600    -2.4650 ca         1 EMO       0.235100
      2 O1           2.7120    -0.1930    -2.5330 oh         1 EMO      -0.489100
      3 C2           0.6570    -0.1620    -3.6810 ca         1 EMO      -0.263000
      4 C3          -0.7340    -0.1300    -3.6990 ca         1 EMO       0.209100
      5 O3          -1.3880    -0.1330    -4.8910 oh         1 EMO      -0.523100
      6 C4          -1.4450    -0.0960    -2.4980 ca         1 EMO      -0.212000
      7 C5          -0.7710    -0.0930    -1.2530 ca         1 EMO      -0.045600
      8 C6          -1.5890    -0.0560     0.0200 c          1 EMO       0.586300
      9 O6          -2.8160    -0.0280    -0.0150 o          1 EMO      -0.508100
     10 C7          -0.8510    -0.0530     1.3380 ca         1 EMO      -0.085600
     11 C8          -1.5920    -0.0170     2.5420 ca         1 EMO      -0.114000
     12 C9          -0.9530    -0.0150     3.7900 ca         1 EMO      -0.016300
     13 C10         -1.7690     0.0270     5.0730 c3         1 EMO      -0.055800
     14 C16          0.4470    -0.0430     3.8390 ca         1 EMO      -0.154000
     15 C17          1.2010    -0.0780     2.6600 ca         1 EMO       0.219100
     16 O17          2.5560    -0.1060     2.7770 oh         1 EMO      -0.546100
     17 C18          0.5680    -0.0850     1.3890 ca         1 EMO      -0.266600
     18 C19          1.3800    -0.1230     0.1090 c          1 EMO       0.626300
     19 O19          2.6040    -0.1510     0.1870 o          1 EMO      -0.555100
     20 C20          0.6520    -0.1260    -1.2270 ca         1 EMO      -0.212600
     21 HO1          2.9720    -0.2120    -3.4770 ho         1 EMO       0.472000
     22 H2           1.1940    -0.1890    -4.6250 ha         1 EMO       0.136000
     23 HO3         -2.3520    -0.1080    -4.7140 ho         1 EMO       0.478000
     24 H4          -2.5320    -0.0710    -2.5260 ha         1 EMO       0.143000
     25 H8          -2.6800     0.0090     2.5120 ha         1 EMO       0.137000
     26 H101        -2.0170     1.0600     5.3440 hc         1 EMO       0.050033
     27 H102        -2.7100    -0.5260     4.9650 hc         1 EMO       0.050033
     28 H103        -1.2210    -0.4170     5.9120 hc         1 EMO       0.050033
     29 H16          0.9570    -0.0370     4.7980 ha         1 EMO       0.134000
     30 H17          2.9080    -0.1290     1.8500 ho         1 EMO       0.521000
@<TRIPOS>BOND
     1     1     2 1   
     2     1     3 ar  
     3     1    20 ar  
     4     2    21 1   
     5     3     4 ar  
     6     3    22 1   
     7     4     5 1   
     8     4     6 ar  
     9     5    23 1   
    10     6     7 ar  
    11     6    24 1   
    12     7     8 1   
    13     7    20 ar  
    14     8     9 2   
    15     8    10 1   
    16    10    11 ar  
    17    10    17 ar  
    18    11    12 ar  
    19    11    25 1   
    20    12    13 1   
    21    12    14 ar  
    22    13    26 1   
    23    13    27 1   
    24    13    28 1   
    25    14    15 ar  
    26    14    29 1   
    27    15    16 1   
    28    15    17 ar  
    29    16    30 1   
    30    17    18 1   
    31    18    19 2   
    32    18    20 1   
@<TRIPOS>SUBSTRUCTURE
     1 EMO         1 TEMP              0 ****  ****    0 ROOT
