@<TRIPOS>MOLECULE
EMQ
   65    68     1     0     0
SMALL
bcc


@<TRIPOS>ATOM
      1 N1           1.9890     3.1740    -1.6830 ns         1 EMQ      -0.560900
      2 C2           0.8790    -2.6620    -0.7080 ca         1 EMQ      -0.271300
      3 C3          -0.2800    -3.2040    -1.2580 ca         1 EMQ      -0.019000
      4 C4          -1.4670    -2.5030    -1.2230 ca         1 EMQ      -0.229000
      5 C5           0.8170    -1.3970    -0.1320 ca         1 EMQ      -0.010000
      6 C6          -0.3610    -0.6770    -0.0910 ca         1 EMQ      -0.175300
      7 C7          -1.5340    -1.2290    -0.6360 ca         1 EMQ       0.240600
      8 N8          -2.7150    -0.5580    -0.5690 nu         1 EMQ      -0.760600
      9 C9          -2.7890     0.8370    -0.1810 c6         1 EMQ       0.286800
     10 C10         -0.3970     0.6940     0.5130 c6         1 EMQ       0.205400
     11 C11         -1.8030     1.0730     0.9720 c6         1 EMQ      -0.096700
     12 C12         -1.7880     2.5110     1.4910 c6         1 EMQ      -0.070400
     13 C13         -1.1350     3.4700     0.5000 c6         1 EMQ      -0.106400
     14 C14          0.2090     2.9200     0.0460 c6         1 EMQ       0.103100
     15 O15          0.0680     1.6060    -0.4620 os         1 EMQ      -0.417600
     16 C16         -4.2020     1.1860     0.2110 ca         1 EMQ      -0.108300
     17 C17         -4.8090     2.3250    -0.3070 ca         1 EMQ      -0.113500
     18 C18         -6.0940     2.6840     0.0810 ca         1 EMQ      -0.130500
     19 C19         -6.7880     1.9010     0.9920 ca         1 EMQ      -0.119000
     20 C20         -6.1910     0.7580     1.5110 ca         1 EMQ      -0.130500
     21 C21         -4.9080     0.4030     1.1230 ca         1 EMQ      -0.113500
     22 F23          2.0640    -4.6390    -1.1910 f          1 EMQ      -0.240633
     23 F24          3.0860    -2.7750    -1.5230 f          1 EMQ      -0.240633
     24 F25          2.7450    -3.4630     0.4800 f          1 EMQ      -0.240633
     25 C26          0.8380     3.7730    -1.0500 c3         1 EMQ       0.119000
     26 C27          3.1340     2.9350    -0.9840 c          1 EMQ       0.771100
     27 N28          4.0160     2.1040    -1.6060 ns         1 EMQ      -0.579900
     28 O29          3.3730     3.4690     0.0940 o          1 EMQ      -0.640100
     29 C30          5.1490     1.5370    -0.9140 c3         1 EMQ       0.110000
     30 C31          4.7390     0.4060     0.0280 c3         1 EMQ       0.131800
     31 N32          5.8720    -0.2330     0.6660 n3         1 EMQ      -0.710600
     32 C33          5.4730    -0.9420     1.8630 c3         1 EMQ       0.149100
     33 C34          6.5850    -1.1170    -0.2320 c3         1 EMQ       0.149100
     34 HN1          1.7820     2.5580    -2.4520 hn         1 EMQ       0.301500
     35 H3          -0.2720    -4.1820    -1.7200 ha         1 EMQ       0.145000
     36 H4          -2.3600    -2.9420    -1.6490 ha         1 EMQ       0.137000
     37 H5           1.7030    -0.9480     0.3030 ha         1 EMQ       0.142000
     38 HN8         -3.4580    -0.8950    -1.1600 hn         1 EMQ       0.431800
     39 H9          -2.5020     1.4770    -1.0260 h1         1 EMQ       0.057700
     40 H10          0.2740     0.7200     1.3860 h1         1 EMQ       0.050700
     41 H11         -2.0860     0.4060     1.7940 hc         1 EMQ       0.071700
     42 H12         -2.7960     2.8440     1.7430 hc         1 EMQ       0.053200
     43 H12A        -1.2190     2.5220     2.4260 hc         1 EMQ       0.053200
     44 H13         -1.7850     3.6250    -0.3670 hc         1 EMQ       0.050700
     45 H13A        -0.9950     4.4500     0.9640 hc         1 EMQ       0.050700
     46 H14          0.8840     2.8930     0.9140 h1         1 EMQ       0.060700
     47 H17         -4.2710     2.9380    -1.0210 ha         1 EMQ       0.135500
     48 H18         -6.5520     3.5740    -0.3330 ha         1 EMQ       0.134000
     49 H19         -7.7900     2.1760     1.2950 ha         1 EMQ       0.134000
     50 H20         -6.7290     0.1420     2.2200 ha         1 EMQ       0.134000
     51 H21         -4.4530    -0.4920     1.5310 ha         1 EMQ       0.135500
     52 H26          1.0980     4.7450    -0.6290 h1         1 EMQ       0.061200
     53 H26A         0.1040     3.9560    -1.8370 h1         1 EMQ       0.061200
     54 HN28         3.7050     1.6110    -2.4270 hn         1 EMQ       0.300500
     55 H30          5.8440     1.1830    -1.6770 h1         1 EMQ       0.064200
     56 H30A         5.6670     2.3130    -0.3520 h1         1 EMQ       0.064200
     57 H31          4.1040     0.8380     0.8050 h1         1 EMQ       0.036200
     58 H31A         4.1130    -0.3160    -0.5240 h1         1 EMQ       0.036200
     59 H33          4.7590    -1.7570     1.6670 h1         1 EMQ       0.031200
     60 H33A         6.3480    -1.3790     2.3480 h1         1 EMQ       0.031200
     61 H33B         5.0070    -0.2560     2.5720 h1         1 EMQ       0.031200
     62 H34          6.9100    -0.5880    -1.1270 h1         1 EMQ       0.031200
     63 H34A         7.4790    -1.5040     0.2590 h1         1 EMQ       0.031200
     64 H34B         5.9810    -1.9790    -0.5550 h1         1 EMQ       0.031200
     65 C22          2.1780    -3.3860    -0.7380 c3         1 EMQ       0.728200
@<TRIPOS>BOND
     1     1    25 1   
     2     1    26 1   
     3     1    34 1   
     4     2     3 ar  
     5     2     5 ar  
     6     2    65 1   
     7     3     4 ar  
     8     3    35 1   
     9     4     7 ar  
    10     4    36 1   
    11     5     6 ar  
    12     5    37 1   
    13     6     7 ar  
    14     6    10 1   
    15     7     8 1   
    16     8     9 1   
    17     8    38 1   
    18     9    11 1   
    19     9    16 1   
    20     9    39 1   
    21    10    11 1   
    22    10    15 1   
    23    10    40 1   
    24    11    12 1   
    25    11    41 1   
    26    12    13 1   
    27    12    42 1   
    28    12    43 1   
    29    13    14 1   
    30    13    44 1   
    31    13    45 1   
    32    14    15 1   
    33    14    25 1   
    34    14    46 1   
    35    16    17 ar  
    36    16    21 ar  
    37    17    18 ar  
    38    17    47 1   
    39    18    19 ar  
    40    18    48 1   
    41    19    20 ar  
    42    19    49 1   
    43    20    21 ar  
    44    20    50 1   
    45    21    51 1   
    46    22    65 1   
    47    23    65 1   
    48    24    65 1   
    49    25    52 1   
    50    25    53 1   
    51    26    27 1   
    52    26    28 2   
    53    27    29 1   
    54    27    54 1   
    55    29    30 1   
    56    29    55 1   
    57    29    56 1   
    58    30    31 1   
    59    30    57 1   
    60    30    58 1   
    61    31    32 1   
    62    31    33 1   
    63    32    59 1   
    64    32    60 1   
    65    32    61 1   
    66    33    62 1   
    67    33    63 1   
    68    33    64 1   
@<TRIPOS>SUBSTRUCTURE
     1 EMQ         1 TEMP              0 ****  ****    0 ROOT
