@<TRIPOS>MOLECULE
EMQ
   65    68     1     0     0
SMALL
No Charge or Current Charge


@<TRIPOS>ATOM
      1 N1           2.0780     3.2140    -1.5160 ns         1 EMQ      -0.493900
      2 C2           0.8430    -2.6510    -0.5630 ca         1 EMQ      -0.271300
      3 C3          -0.3350    -3.2430    -1.0690 ca         1 EMQ      -0.001000
      4 C4          -1.5540    -2.5470    -1.0120 ca         1 EMQ      -0.211000
      5 C5           0.7780    -1.3570    -0.0060 ca         1 EMQ       0.008000
      6 C6          -0.4460    -0.6660     0.0550 ca         1 EMQ      -0.175300
      7 C7          -1.6110    -1.2640    -0.4550 ca         1 EMQ       0.379000
      8 N8          -2.8250    -0.5860    -0.4000 nu         1 EMQ      -0.954200
      9 C9          -2.9210     0.8470    -0.0970 c6         1 EMQ       0.286800
     10 C10         -0.5000     0.7380     0.6550 c6         1 EMQ       0.228600
     11 C11         -1.9400     1.1570     1.0690 c6         1 EMQ      -0.096700
     12 C12         -1.9490     2.6510     1.5170 c6         1 EMQ      -0.070400
     13 C13         -1.2590     3.5700     0.4770 c6         1 EMQ      -0.106400
     14 C14          0.1460     3.0160     0.1270 c6         1 EMQ       0.126300
     15 O15          0.0210     1.6520    -0.3330 os         1 EMQ      -0.464000
     16 C16         -4.3780     1.2200     0.2070 ca         1 EMQ      -0.108300
     17 C17         -5.0410     2.1720    -0.5950 ca         1 EMQ      -0.095500
     18 C18         -6.3720     2.5300    -0.3200 ca         1 EMQ      -0.112500
     19 C19         -7.0520     1.9390     0.7580 ca         1 EMQ      -0.101000
     20 C20         -6.4000     0.9880     1.5610 ca         1 EMQ      -0.112500
     21 C21         -5.0690     0.6290     1.2870 ca         1 EMQ      -0.095500
     22 F23          2.0980    -4.6400    -1.0810 f          1 EMQ      -0.119333
     23 F24          3.0730    -2.7260    -1.4010 f          1 EMQ      -0.119333
     24 F25          2.7480    -3.4590     0.6200 f          1 EMQ      -0.119333
     25 C26          0.8620     3.8470    -0.9830 c3         1 EMQ       0.119000
     26 C27          3.1680     2.8710    -0.7650 c          1 EMQ       0.637100
     27 N28          4.0800     2.1380    -1.4750 ns         1 EMQ      -0.512900
     28 O29          3.3160     3.1820     0.4050 o          1 EMQ      -0.640100
     29 C30          5.2780     1.5210    -0.8940 c3         1 EMQ       0.110000
     30 C31          4.9460     0.2380    -0.0860 c3         1 EMQ       0.131800
     31 N32          6.1050    -0.4230     0.5720 n3         1 EMQ      -0.710600
     32 C33          5.6780    -1.5040     1.4890 c3         1 EMQ       0.149100
     33 C34          7.1460    -0.8880    -0.3760 c3         1 EMQ       0.149100
     34 HN1          2.0610     2.8910    -2.4730 hn         1 EMQ       0.301500
     35 H3          -0.3170    -4.2390    -1.5080 ha         1 EMQ       0.127000
     36 H4          -2.4550    -3.0100    -1.4030 ha         1 EMQ       0.119000
     37 H5           1.6800    -0.8840     0.3800 ha         1 EMQ       0.124000
     38 HN8         -3.6270    -1.0460    -0.8270 hn         1 EMQ       0.487000
     39 H9          -2.5910     1.4180    -0.9780 h1         1 EMQ       0.057700
     40 H10          0.1520     0.7700     1.5410 h1         1 EMQ       0.050700
     41 H11         -2.2330     0.5470     1.9330 hc         1 EMQ       0.071700
     42 H12         -2.9740     2.9980     1.7090 hc         1 EMQ       0.053200
     43 H12A        -1.4190     2.7380     2.4750 hc         1 EMQ       0.053200
     44 H13         -1.8730     3.6410    -0.4300 hc         1 EMQ       0.050700
     45 H13A        -1.1720     4.5880     0.8790 hc         1 EMQ       0.050700
     46 H14          0.7760     3.0270     1.0290 h1         1 EMQ       0.060700
     47 H17         -4.5230     2.6380    -1.4310 ha         1 EMQ       0.117500
     48 H18         -6.8760     3.2660    -0.9420 ha         1 EMQ       0.116000
     49 H19         -8.0820     2.2170     0.9710 ha         1 EMQ       0.116000
     50 H20         -6.9260     0.5290     2.3950 ha         1 EMQ       0.116000
     51 H21         -4.5740    -0.1110     1.9120 ha         1 EMQ       0.117500
     52 H26          1.1220     4.8330    -0.5770 h1         1 EMQ       0.061200
     53 H26A         0.1620     4.0000    -1.8150 h1         1 EMQ       0.061200
     54 HN28         3.8640     1.9460    -2.4440 hn         1 EMQ       0.300500
     55 H30          5.9670     1.2770    -1.7120 h1         1 EMQ       0.064200
     56 H30A         5.7740     2.2470    -0.2370 h1         1 EMQ       0.064200
     57 H31          4.2080     0.5130     0.6800 h1         1 EMQ       0.036200
     58 H31A         4.4500    -0.4730    -0.7610 h1         1 EMQ       0.036200
     59 H33          5.2030    -2.3230     0.9320 h1         1 EMQ       0.031200
     60 H33A         6.5380    -1.9130     2.0350 h1         1 EMQ       0.031200
     61 H33B         4.9580    -1.1270     2.2280 h1         1 EMQ       0.031200
     62 H34          7.5660    -0.0500    -0.9470 h1         1 EMQ       0.031200
     63 H34A         7.9750    -1.3660     0.1630 h1         1 EMQ       0.031200
     64 H34B         6.7320    -1.6180    -1.0850 h1         1 EMQ       0.031200
     65 C22          2.1910    -3.3760    -0.6090 c3         1 EMQ       0.364300
@<TRIPOS>BOND
     1     1    25 1   
     2     1    26 1   
     3     1    34 1   
     4     2     3 ar  
     5     2     5 ar  
     6     2    65 1   
     7     3     4 ar  
     8     3    35 1   
     9     4     7 ar  
    10     4    36 1   
    11     5     6 ar  
    12     5    37 1   
    13     6     7 ar  
    14     6    10 1   
    15     7     8 1   
    16     8     9 1   
    17     8    38 1   
    18     9    11 1   
    19     9    16 1   
    20     9    39 1   
    21    10    11 1   
    22    10    15 1   
    23    10    40 1   
    24    11    12 1   
    25    11    41 1   
    26    12    13 1   
    27    12    42 1   
    28    12    43 1   
    29    13    14 1   
    30    13    44 1   
    31    13    45 1   
    32    14    15 1   
    33    14    25 1   
    34    14    46 1   
    35    16    17 ar  
    36    16    21 ar  
    37    17    18 ar  
    38    17    47 1   
    39    18    19 ar  
    40    18    48 1   
    41    19    20 ar  
    42    19    49 1   
    43    20    21 ar  
    44    20    50 1   
    45    21    51 1   
    46    22    65 1   
    47    23    65 1   
    48    24    65 1   
    49    25    52 1   
    50    25    53 1   
    51    26    27 1   
    52    26    28 2   
    53    27    29 1   
    54    27    54 1   
    55    29    30 1   
    56    29    55 1   
    57    29    56 1   
    58    30    31 1   
    59    30    57 1   
    60    30    58 1   
    61    31    32 1   
    62    31    33 1   
    63    32    59 1   
    64    32    60 1   
    65    32    61 1   
    66    33    62 1   
    67    33    63 1   
    68    33    64 1   
@<TRIPOS>SUBSTRUCTURE
     1 EMQ         1 TEMP              0 ****  ****    0 ROOT
