@<TRIPOS>MOLECULE
EMR
   23    23     1     0     0
SMALL
No Charge or Current Charge


@<TRIPOS>ATOM
      1 O1           0.3240    -0.1550    -2.7470 os         1 EMR      -0.449000
      2 C2          -0.9670     0.3530    -2.3330 c6         1 EMR       0.152100
      3 C3          -1.3070    -0.1420    -0.8960 c6         1 EMR       0.127300
      4 N4          -0.2370     0.2180     0.0870 n3         1 EMR      -0.719600
      5 C5           1.1020    -0.2470    -0.4040 c6         1 EMR       0.127300
      6 C6           1.3910     0.2460    -1.8550 c6         1 EMR       0.152100
      7 C1          -0.5630    -0.2360     1.4680 c3         1 EMR       0.164800
      8 C4           0.4020     0.2750     2.5810 c3         1 EMR       0.147800
      9 N2          -0.0260    -0.1080     3.9520 n8         1 EMR      -1.000200
     10 H21         -1.7340     0.0070    -3.0400 h1         1 EMR       0.049700
     11 H22         -0.9500     1.4530    -2.3580 h1         1 EMR       0.049700
     12 H31         -1.4480    -1.2330    -0.9250 h1         1 EMR       0.040950
     13 H32         -2.2690     0.2980    -0.5910 h1         1 EMR       0.040950
     14 H51          1.9060     0.1210     0.2480 h1         1 EMR       0.040950
     15 H52          1.1520    -1.3460    -0.3910 h1         1 EMR       0.040950
     16 H61          2.3390    -0.1790    -2.2130 h1         1 EMR       0.049700
     17 H62          1.4820     1.3420    -1.8670 h1         1 EMR       0.049700
     18 H1'1        -0.5820    -1.3340     1.5030 h1         1 EMR       0.038700
     19 H1'2        -1.5740     0.1080     1.7250 h1         1 EMR       0.038700
     20 H2'1         0.4620     1.3710     2.5300 h1         1 EMR       0.034700
     21 H2'2         1.4080    -0.1320     2.4120 h1         1 EMR       0.034700
     22 HN21         0.6220     0.3100     4.6320 hn         1 EMR       0.393500
     23 HN22        -0.9210     0.3500     4.1630 hn         1 EMR       0.393500
@<TRIPOS>BOND
     1     1     2 1   
     2     1     6 1   
     3     2     3 1   
     4     2    10 1   
     5     2    11 1   
     6     3     4 1   
     7     3    12 1   
     8     3    13 1   
     9     4     5 1   
    10     4     7 1   
    11     5     6 1   
    12     5    14 1   
    13     5    15 1   
    14     6    16 1   
    15     6    17 1   
    16     7     8 1   
    17     7    18 1   
    18     7    19 1   
    19     8     9 1   
    20     8    20 1   
    21     8    21 1   
    22     9    22 1   
    23     9    23 1   
@<TRIPOS>SUBSTRUCTURE
     1 EMR         1 TEMP              0 ****  ****    0 ROOT
