@<TRIPOS>MOLECULE
EMR
   23    23     1     0     0
SMALL
bcc


@<TRIPOS>ATOM
      1 O1           0.3070    -0.1120    -2.6920 os         1 EMR      -0.402600
      2 C2          -0.9300     0.3840    -2.2300 c6         1 EMR       0.128900
      3 C3          -1.2600    -0.1430    -0.8460 c6         1 EMR       0.127300
      4 N4          -0.2060     0.2020     0.0910 n3         1 EMR      -0.719600
      5 C5           1.0640    -0.3060    -0.3970 c6         1 EMR       0.127300
      6 C6           1.3410     0.2200    -1.7920 c6         1 EMR       0.128900
      7 C1          -0.5150    -0.2570     1.4310 c3         1 EMR       0.164800
      8 C4           0.3740     0.3660     2.4980 c3         1 EMR       0.147800
      9 N2          -0.0430    -0.0930     3.8150 n8         1 EMR      -0.889800
     10 H21         -1.6960     0.0710    -2.9410 h1         1 EMR       0.049700
     11 H22         -0.9180     1.4830    -2.2080 h1         1 EMR       0.049700
     12 H31         -1.4210    -1.2340    -0.8990 h1         1 EMR       0.040950
     13 H32         -2.2000     0.3050    -0.5140 h1         1 EMR       0.040950
     14 H51          1.8770     0.0210     0.2540 h1         1 EMR       0.040950
     15 H52          1.0830    -1.4100    -0.4060 h1         1 EMR       0.040950
     16 H61          2.2640    -0.2160    -2.1790 h1         1 EMR       0.049700
     17 H62          1.4750     1.3100    -1.7490 h1         1 EMR       0.049700
     18 H1'1        -0.4640    -1.3560     1.5130 h1         1 EMR       0.038700
     19 H1'2        -1.5530     0.0230     1.6430 h1         1 EMR       0.038700
     20 H2'1         0.3540     1.4570     2.3760 h1         1 EMR       0.034700
     21 H2'2         1.4120     0.0570     2.3530 h1         1 EMR       0.034700
     22 HN21         0.6040     0.2510     4.5110 hn         1 EMR       0.338300
     23 HN22        -0.9380     0.3190     4.0480 hn         1 EMR       0.338300
@<TRIPOS>BOND
     1     1     2 1   
     2     1     6 1   
     3     2     3 1   
     4     2    10 1   
     5     2    11 1   
     6     3     4 1   
     7     3    12 1   
     8     3    13 1   
     9     4     5 1   
    10     4     7 1   
    11     5     6 1   
    12     5    14 1   
    13     5    15 1   
    14     6    16 1   
    15     6    17 1   
    16     7     8 1   
    17     7    18 1   
    18     7    19 1   
    19     8     9 1   
    20     8    20 1   
    21     8    21 1   
    22     9    22 1   
    23     9    23 1   
@<TRIPOS>SUBSTRUCTURE
     1 EMR         1 TEMP              0 ****  ****    0 ROOT
