@<TRIPOS>MOLECULE
EMU
   28    30     1     0     0
SMALL
bcc


@<TRIPOS>ATOM
      1 N1          -2.3820     2.5480    -1.3370 nb         1 EMU      -0.823000
      2 C2          -1.1390     2.4080    -1.7940 ca         1 EMU       0.707900
      3 N3          -0.0780     1.9420    -1.1610 nb         1 EMU      -0.746000
      4 C4          -0.3680     1.5810     0.0890 ca         1 EMU       0.452800
      5 C5          -1.6110     1.6640     0.7010 ca         1 EMU      -0.231200
      6 C6          -2.6600     2.1820    -0.0830 ca         1 EMU       0.777200
      7 C9          -4.9820     2.9460    -0.3350 c3         1 EMU       0.278100
      8 N7          -1.5530     1.2090     1.9930 nc         1 EMU      -0.552100
      9 C8          -0.3080     0.8610     2.1530 cd         1 EMU       0.397700
     10 N9           0.4520     1.0630     1.0420 na         1 EMU      -0.362000
     11 C10         -4.9200     4.4510    -0.2450 ca         1 EMU      -0.120300
     12 C11         -5.3050     5.1010     0.9260 ca         1 EMU      -0.106000
     13 C12         -5.2280     6.4820     1.0280 ca         1 EMU      -0.133500
     14 C13         -4.7650     7.2350    -0.0450 ca         1 EMU      -0.120000
     15 C14         -4.3830     6.5970    -1.2170 ca         1 EMU      -0.133500
     16 C15         -4.4590     5.2130    -1.3140 ca         1 EMU      -0.106000
     17 N10         -3.9090     2.2940     0.3850 nu         1 EMU      -0.852900
     18 H2          -0.9840     2.7220    -2.8210 h5         1 EMU       0.045100
     19 H9C1        -5.9170     2.5810     0.0910 h1         1 EMU       0.064200
     20 H9C2        -4.9570     2.6290    -1.3770 h1         1 EMU       0.064200
     21 H8           0.1160     0.4540     3.0580 h5         1 EMU       0.065800
     22 H9           1.4370     0.8640     0.9510 hn         1 EMU       0.318700
     23 H11         -5.6780     4.5240     1.7660 ha         1 EMU       0.133500
     24 H12         -5.5340     6.9730     1.9430 ha         1 EMU       0.130500
     25 H13         -4.7060     8.3130     0.0330 ha         1 EMU       0.130000
     26 H14         -4.0250     7.1760    -2.0590 ha         1 EMU       0.130500
     27 H15         -4.1510     4.7180    -2.2260 ha         1 EMU       0.133500
     28 H10         -4.0610     2.0690     1.3550 hn         1 EMU       0.455800
@<TRIPOS>BOND
     1     1     2 ar  
     2     1     6 ar  
     3     2     3 ar  
     4     2    18 1   
     5     3     4 ar  
     6     4     5 ar  
     7     4    10 1   
     8     5     6 ar  
     9     5     8 1   
    10     6    17 1   
    11     7    11 1   
    12     7    17 1   
    13     7    19 1   
    14     7    20 1   
    15     8     9 2   
    16     9    10 1   
    17     9    21 1   
    18    10    22 1   
    19    11    12 ar  
    20    11    16 ar  
    21    12    13 ar  
    22    12    23 1   
    23    13    14 ar  
    24    13    24 1   
    25    14    15 ar  
    26    14    25 1   
    27    15    16 ar  
    28    15    26 1   
    29    16    27 1   
    30    17    28 1   
@<TRIPOS>SUBSTRUCTURE
     1 EMU         1 TEMP              0 ****  ****    0 ROOT
