@<TRIPOS>MOLECULE
EMU
   28    30     1     0     0
SMALL
No Charge or Current Charge


@<TRIPOS>ATOM
      1 N1          -2.4760     2.3690    -1.5700 nb         1 EMU      -0.297000
      2 C2          -1.1750     2.3430    -1.9420 ca         1 EMU       0.181900
      3 N3          -0.1140     2.0450    -1.1550 nb         1 EMU      -0.220000
      4 C4          -0.4010     1.7460     0.1250 ca         1 EMU       0.124500
      5 C5          -1.6840     1.7430     0.6070 ca         1 EMU      -0.100600
      6 C6          -2.7330     2.0670    -0.2820 ca         1 EMU       0.448900
      7 C9          -5.1570     2.8580    -0.4350 c3         1 EMU       0.278100
      8 N7          -1.7430     1.4070     1.9570 nc         1 EMU      -0.552100
      9 C8          -0.4460     1.2100     2.2570 cd         1 EMU       0.397700
     10 N9           0.4130     1.4060     1.1670 na         1 EMU      -0.412300
     11 C10         -4.9230     4.3540    -0.2480 ca         1 EMU      -0.120300
     12 C11         -5.1660     4.9610     1.0020 ca         1 EMU      -0.088000
     13 C12         -4.9510     6.3390     1.1750 ca         1 EMU      -0.115500
     14 C13         -4.4920     7.1210     0.1020 ca         1 EMU      -0.102000
     15 C14         -4.2490     6.5230    -1.1460 ca         1 EMU      -0.115500
     16 C15         -4.4640     5.1450    -1.3210 ca         1 EMU      -0.088000
     17 N10         -4.0530     2.0850     0.1530 nu         1 EMU      -0.908100
     18 H2          -0.9590     2.5870    -2.9810 h5         1 EMU       0.045100
     19 H9C1        -6.1050     2.5850     0.0490 h1         1 EMU       0.064200
     20 H9C2        -5.2630     2.6260    -1.5040 h1         1 EMU       0.064200
     21 H8          -0.0590     0.9280     3.2300 h5         1 EMU       0.065800
     22 H9           1.4200     1.3130     1.1650 hn         1 EMU       0.369000
     23 H11         -5.5200     4.3620     1.8390 ha         1 EMU       0.115500
     24 H12         -5.1390     6.8000     2.1420 ha         1 EMU       0.112500
     25 H13         -4.3250     8.1880     0.2370 ha         1 EMU       0.112000
     26 H14         -3.8930     7.1280    -1.9780 ha         1 EMU       0.112500
     27 H15         -4.2710     4.6920    -2.2910 ha         1 EMU       0.115500
     28 H10         -4.1280     1.8690     1.1470 hn         1 EMU       0.511000
@<TRIPOS>BOND
     1     1     2 ar  
     2     1     6 ar  
     3     2     3 ar  
     4     2    18 1   
     5     3     4 ar  
     6     4     5 ar  
     7     4    10 1   
     8     5     6 ar  
     9     5     8 1   
    10     6    17 1   
    11     7    11 1   
    12     7    17 1   
    13     7    19 1   
    14     7    20 1   
    15     8     9 2   
    16     9    10 1   
    17     9    21 1   
    18    10    22 1   
    19    11    12 ar  
    20    11    16 ar  
    21    12    13 ar  
    22    12    23 1   
    23    13    14 ar  
    24    13    24 1   
    25    14    15 ar  
    26    14    25 1   
    27    15    16 ar  
    28    15    26 1   
    29    16    27 1   
    30    17    28 1   
@<TRIPOS>SUBSTRUCTURE
     1 EMU         1 TEMP              0 ****  ****    0 ROOT
