@<TRIPOS>MOLECULE
EMV
   62    64     1     0     0
SMALL
No Charge or Current Charge


@<TRIPOS>ATOM
      1 C10         -5.2050    -0.0450    -0.5440 cc         1 EMV      -0.104000
      2 C15         -6.6770     2.5230    -0.1330 cd         1 EMV      -0.241000
      3 C17         -8.7030     2.7830     1.3310 cd         1 EMV      -0.247000
      4 C21          4.5810    -1.6140     1.2970 c3         1 EMV       0.209000
      5 C22          5.7380    -0.7780     0.8020 c2         1 EMV      -0.194200
      6 C24          7.3390     1.0540     0.8720 cg         1 EMV      -0.173300
      7 C26          9.3580     2.4040    -0.2810 c3         1 EMV       0.039100
      8 C28         10.2600     1.3950    -1.0370 c3         1 EMV      -0.081100
      9 C01          1.2170    -2.5860    -0.2750 ca         1 EMV      -0.050300
     10 C02          1.4620    -3.0590    -1.5780 ca         1 EMV      -0.123000
     11 C03          0.4200    -3.1240    -2.5190 ca         1 EMV      -0.079000
     12 C04         -0.8770    -2.7140    -2.1640 ca         1 EMV      -0.197000
     13 C05         -1.1320    -2.2370    -0.8600 ca         1 EMV       0.137100
     14 C06         -0.0860    -2.1770     0.0750 ca         1 EMV      -0.140000
     15 O07         -2.3830    -1.8200    -0.4530 os         1 EMV      -0.347100
     16 C08         -3.5190    -1.8390    -1.3320 c3         1 EMV       0.237900
     17 C09         -4.7090    -1.3230    -0.5710 cd         1 EMV      -0.228300
     18 C11         -6.3520     0.1080     0.2830 cc         1 EMV      -0.033000
     19 C12         -6.7330    -1.0630     0.8930 cd         1 EMV      -0.241000
     20 S13         -5.6640    -2.4070     0.4540 ss         1 EMV       0.251000
     21 C14         -7.0580     1.3530     0.4770 cc         1 EMV      -0.033000
     22 S16         -7.7450     3.8670     0.3090 ss         1 EMV       0.208000
     23 C18         -8.2050     1.5070     1.3040 cc         1 EMV      -0.119000
     24 N20          3.4000    -1.5120     0.4080 n3         1 EMV      -0.733600
     25 C23          6.2440     0.3140     1.4150 ce         1 EMV      -0.072700
     26 C25          8.2560     1.6720     0.3700 c1         1 EMV      -0.115100
     27 C27         10.1860     3.1420     0.8000 c3         1 EMV      -0.081100
     28 C29          8.7640     3.4300    -1.2800 c3         1 EMV      -0.081100
     29 C30          2.8830    -0.1250     0.2170 c3         1 EMV       0.167800
     30 C31          2.3030     0.5460     1.4820 c3         1 EMV      -0.125100
     31 H1          -4.7650     0.7750    -1.1010 ha         1 EMV       0.133000
     32 H2          -5.8500     2.7010    -0.8080 h4         1 EMV       0.149000
     33 H3          -9.5590     3.1600     1.8770 h4         1 EMV       0.150000
     34 H4           4.9160    -2.6590     1.3490 h1         1 EMV       0.036700
     35 H5           4.3180    -1.3160     2.3220 h1         1 EMV       0.036700
     36 H6           6.1590    -1.1320    -0.1390 ha         1 EMV       0.186000
     37 H7          10.6870     0.6550    -0.3500 hc         1 EMV       0.038589
     38 H8           9.6910     0.8560    -1.8060 hc         1 EMV       0.038589
     39 H9          11.0900     1.9120    -1.5340 hc         1 EMV       0.038589
     40 H10          2.4650    -3.3730    -1.8600 ha         1 EMV       0.127000
     41 H11          0.6200    -3.4900    -3.5240 ha         1 EMV       0.111000
     42 H12         -1.6630    -2.7730    -2.9110 ha         1 EMV       0.115000
     43 H13         -0.2900    -1.8080     1.0760 ha         1 EMV       0.125000
     44 H14         -3.3430    -1.2010    -2.2080 h1         1 EMV       0.046700
     45 H15         -3.7250    -2.8600    -1.6810 h1         1 EMV       0.046700
     46 H16         -7.5590    -1.2410     1.5680 h4         1 EMV       0.150000
     47 H17         -8.6450     0.6870     1.8620 ha         1 EMV       0.133000
     48 H18          1.9360    -2.3080     1.7380 h1         1 EMV       0.038200
     49 H19          2.8080    -3.5130     0.8000 h1         1 EMV       0.038200
     50 H21          5.8250     0.6760     2.3560 ha         1 EMV       0.181000
     51 H22         11.0150     3.6970     0.3440 hc         1 EMV       0.038589
     52 H23          9.5650     3.8580     1.3530 hc         1 EMV       0.038589
     53 H24         10.6120     2.4340     1.5230 hc         1 EMV       0.038589
     54 H25          9.5620     3.9910    -1.7820 hc         1 EMV       0.038589
     55 H26          8.1680     2.9290    -2.0530 hc         1 EMV       0.038589
     56 H27          8.1170     4.1510    -0.7670 hc         1 EMV       0.038589
     57 H28          3.6820     0.5210    -0.1720 h1         1 EMV       0.056200
     58 H29          2.1010    -0.1230    -0.5550 h1         1 EMV       0.056200
     59 H30          1.4570    -0.0220     1.8820 hc         1 EMV       0.035367
     60 H31          3.0640     0.6420     2.2650 hc         1 EMV       0.035367
     61 H32          1.9450     1.5530     1.2370 hc         1 EMV       0.035367
     62 C19          2.3540    -2.5140     0.7430 c3         1 EMV       0.221100
@<TRIPOS>BOND
     1     1    17 2   
     2     1    18 1   
     3     1    31 1   
     4     2    21 2   
     5     2    22 1   
     6     2    32 1   
     7     3    22 1   
     8     3    23 2   
     9     3    33 1   
    10     4     5 1   
    11     4    24 1   
    12     4    34 1   
    13     4    35 1   
    14     5    25 2   
    15     5    36 1   
    16     6    25 1   
    17     6    26 3   
    18     7     8 1   
    19     7    26 1   
    20     7    27 1   
    21     7    28 1   
    22     8    37 1   
    23     8    38 1   
    24     8    39 1   
    25     9    10 ar  
    26     9    14 ar  
    27     9    62 1   
    28    10    11 ar  
    29    10    40 1   
    30    11    12 ar  
    31    11    41 1   
    32    12    13 ar  
    33    12    42 1   
    34    13    14 ar  
    35    13    15 1   
    36    14    43 1   
    37    15    16 1   
    38    16    17 1   
    39    16    44 1   
    40    16    45 1   
    41    17    20 1   
    42    18    19 2   
    43    18    21 1   
    44    19    20 1   
    45    19    46 1   
    46    21    23 1   
    47    23    47 1   
    48    24    29 1   
    49    24    62 1   
    50    25    50 1   
    51    27    51 1   
    52    27    52 1   
    53    27    53 1   
    54    28    54 1   
    55    28    55 1   
    56    28    56 1   
    57    29    30 1   
    58    29    57 1   
    59    29    58 1   
    60    30    59 1   
    61    30    60 1   
    62    30    61 1   
    63    48    62 1   
    64    49    62 1   
@<TRIPOS>SUBSTRUCTURE
     1 EMV         1 TEMP              0 ****  ****    0 ROOT
