@<TRIPOS>MOLECULE
EMV
   62    64     1     0     0
SMALL
abcg2


@<TRIPOS>ATOM
      1 C10         -5.7000    -0.1690    -0.6140 cc         1 EMV      -0.104000
      2 C15         -8.0870     1.7270    -0.6310 cd         1 EMV      -0.241000
      3 C17        -10.0690     1.4740     0.8050 cd         1 EMV      -0.247000
      4 C21          4.5770    -1.2820     1.2950 c3         1 EMV       0.209000
      5 C22          5.7700    -0.6510     0.6550 c2         1 EMV      -0.194200
      6 C24          7.7770     0.7260     0.6920 cg         1 EMV      -0.173300
      7 C26          9.9240     1.8400    -0.4460 c3         1 EMV       0.039100
      8 C28         10.7610     0.7490    -1.1260 c3         1 EMV      -0.081100
      9 C01          1.1720    -1.8750    -0.1220 ca         1 EMV      -0.050300
     10 C02          1.4570    -2.1330    -1.4650 ca         1 EMV      -0.123000
     11 C03          0.4350    -2.1280    -2.3950 ca         1 EMV      -0.079000
     12 C04         -0.8810    -1.8660    -2.0220 ca         1 EMV      -0.197000
     13 C05         -1.1650    -1.6060    -0.6870 ca         1 EMV       0.137100
     14 C06         -0.1330    -1.6110     0.2560 ca         1 EMV      -0.140000
     15 O07         -2.3980    -1.3260    -0.2080 os         1 EMV      -0.347100
     16 C08         -3.4910    -1.3550    -1.1080 c3         1 EMV       0.237900
     17 C09         -4.7260    -1.0720    -0.3310 cd         1 EMV      -0.228300
     18 C11         -6.7870    -0.1950     0.3150 cc         1 EMV      -0.033000
     19 C12         -6.5850    -1.1330     1.2880 cd         1 EMV      -0.241000
     20 S13         -5.1100    -1.9760     1.0840 ss         1 EMV       0.251000
     21 C14         -7.9580     0.6780     0.2380 cc         1 EMV      -0.033000
     22 S16         -9.5830     2.5350    -0.4500 ss         1 EMV       0.208000
     23 C18         -9.1160     0.5420     1.0660 cc         1 EMV      -0.119000
     24 N20          3.3720    -1.0200     0.5310 n3         1 EMV      -0.733600
     25 C23          6.6270     0.1470     1.2980 ce         1 EMV      -0.072700
     26 C25          8.7530     1.2280     0.1890 c1         1 EMV      -0.115100
     27 C27         10.7650     2.5570     0.6180 c3         1 EMV      -0.081100
     28 C29          9.4530     2.8550    -1.4970 c3         1 EMV      -0.081100
     29 C30          3.0020     0.3870     0.4830 c3         1 EMV       0.167800
     30 C31          2.5930     1.0310     1.8060 c3         1 EMV      -0.125100
     31 H1          -5.6460     0.4950    -1.4660 ha         1 EMV       0.133000
     32 H2          -7.3750     2.0750    -1.3640 h4         1 EMV       0.149000
     33 H3         -11.0310     1.5880     1.2790 h4         1 EMV       0.150000
     34 H4           4.7290    -2.3660     1.3060 h1         1 EMV       0.036700
     35 H5           4.5080    -0.9740     2.3500 h1         1 EMV       0.036700
     36 H6           5.9310    -0.8830    -0.3940 ha         1 EMV       0.186000
     37 H7          11.1180     0.0130    -0.4060 hc         1 EMV       0.038589
     38 H8          10.1810     0.2260    -1.8880 hc         1 EMV       0.038589
     39 H9          11.6300     1.1980    -1.6120 hc         1 EMV       0.038589
     40 H10          2.4770    -2.3290    -1.7690 ha         1 EMV       0.127000
     41 H11          0.6520    -2.3290    -3.4360 ha         1 EMV       0.111000
     42 H12         -1.6510    -1.8650    -2.7800 ha         1 EMV       0.115000
     43 H13         -0.3650    -1.3980     1.2940 ha         1 EMV       0.125000
     44 H14         -3.3830    -0.6010    -1.8960 h1         1 EMV       0.046700
     45 H15         -3.5560    -2.3350    -1.5940 h1         1 EMV       0.046700
     46 H16         -7.2220    -1.3620     2.1290 h4         1 EMV       0.150000
     47 H17         -9.2360    -0.2240     1.8200 ha         1 EMV       0.133000
     48 H18          1.8600    -1.6770     1.8950 h1         1 EMV       0.038200
     49 H19          2.6760    -2.9140     0.9620 h1         1 EMV       0.038200
     50 H21          6.4530     0.3870     2.3430 ha         1 EMV       0.181000
     51 H22         11.6380     3.0170     0.1510 hc         1 EMV       0.038589
     52 H23         10.1910     3.3440     1.1090 hc         1 EMV       0.038589
     53 H24         11.1150     1.8650     1.3840 hc         1 EMV       0.038589
     54 H25         10.3180     3.3180    -1.9750 hc         1 EMV       0.038589
     55 H26          8.8540     2.3740    -2.2710 hc         1 EMV       0.038589
     56 H27          8.8510     3.6440    -1.0440 hc         1 EMV       0.038589
     57 H28          3.8440     0.9420     0.0620 h1         1 EMV       0.056200
     58 H29          2.1860     0.4960    -0.2350 h1         1 EMV       0.056200
     59 H30          1.7250     0.5440     2.2530 hc         1 EMV       0.035367
     60 H31          3.4000     1.0140     2.5410 hc         1 EMV       0.035367
     61 H32          2.3280     2.0760     1.6390 hc         1 EMV       0.035367
     62 C19          2.2770    -1.8970     0.9010 c3         1 EMV       0.221100
@<TRIPOS>BOND
     1     1    17 2   
     2     1    18 1   
     3     1    31 1   
     4     2    21 2   
     5     2    22 1   
     6     2    32 1   
     7     3    22 1   
     8     3    23 2   
     9     3    33 1   
    10     4     5 1   
    11     4    24 1   
    12     4    34 1   
    13     4    35 1   
    14     5    25 2   
    15     5    36 1   
    16     6    25 1   
    17     6    26 3   
    18     7     8 1   
    19     7    26 1   
    20     7    27 1   
    21     7    28 1   
    22     8    37 1   
    23     8    38 1   
    24     8    39 1   
    25     9    10 ar  
    26     9    14 ar  
    27     9    62 1   
    28    10    11 ar  
    29    10    40 1   
    30    11    12 ar  
    31    11    41 1   
    32    12    13 ar  
    33    12    42 1   
    34    13    14 ar  
    35    13    15 1   
    36    14    43 1   
    37    15    16 1   
    38    16    17 1   
    39    16    44 1   
    40    16    45 1   
    41    17    20 1   
    42    18    19 2   
    43    18    21 1   
    44    19    20 1   
    45    19    46 1   
    46    21    23 1   
    47    23    47 1   
    48    24    29 1   
    49    24    62 1   
    50    25    50 1   
    51    27    51 1   
    52    27    52 1   
    53    27    53 1   
    54    28    54 1   
    55    28    55 1   
    56    28    56 1   
    57    29    30 1   
    58    29    57 1   
    59    29    58 1   
    60    30    59 1   
    61    30    60 1   
    62    30    61 1   
    63    48    62 1   
    64    49    62 1   
@<TRIPOS>SUBSTRUCTURE
     1 EMV         1 TEMP              0 ****  ****    0 ROOT
