@<TRIPOS>MOLECULE
EMW
   56    59     1     0     0
SMALL
No Charge or Current Charge


@<TRIPOS>ATOM
      1 C1           9.1970    -0.2160     0.9640 c3         1 EMW       0.148900
      2 C3           6.9330    -0.4380     0.0040 ca         1 EMW       0.139100
      3 C4           6.4060     0.5890     0.8120 ca         1 EMW      -0.190000
      4 C5           5.0510     0.9440     0.7060 ca         1 EMW      -0.054000
      5 C6           4.2000     0.2780    -0.2050 ca         1 EMW      -0.070000
      6 C8           1.9550     1.4040     0.3910 c          1 EMW       0.651100
      7 O9           2.2840     1.9850     1.4160 o          1 EMW      -0.624100
      8 N10          0.6350     1.5000    -0.1070 n          1 EMW      -0.400800
      9 C11          0.1020     0.7530    -1.2820 c6         1 EMW       0.075000
     10 C12         -0.9980    -0.2730    -0.8670 c6         1 EMW       0.197500
     11 C16         -1.5370     1.2080     1.0900 c6         1 EMW       0.168800
     12 C17         -0.4450     2.2060     0.6260 c6         1 EMW       0.086000
     13 C18         -3.2800    -0.2870     0.1990 ca         1 EMW       0.462900
     14 N22         -5.6760    -1.5720     0.6990 nb         1 EMW      -0.290000
     15 C23         -5.6630    -0.3150     0.2210 ca         1 EMW       0.186500
     16 C24         -4.4970     0.3360    -0.0280 ca         1 EMW      -0.399900
     17 C31          6.0940    -1.0960    -0.9070 ca         1 EMW      -0.138000
     18 O2           8.2550    -0.8290     0.0640 os         1 EMW      -0.342100
     19 N7           2.8200     0.6090    -0.3510 ns         1 EMW      -0.174000
     20 C14         -1.5980    -0.9330    -2.1400 c3         1 EMW      -0.095100
     21 N15         -2.0670     0.3740    -0.0330 nh         1 EMW      -0.755300
     22 N19         -3.2560    -1.5440     0.6860 nb         1 EMW      -0.343000
     23 C20         -4.4570    -2.1080     0.9010 ca         1 EMW       0.433900
     24 N21         -4.4340    -3.3680     1.3880 nv         1 EMW      -1.060900
     25 C25         -4.8240     1.6390    -0.5260 cc         1 EMW       0.402800
     26 N26         -6.1520     1.8150    -0.5910 nd         1 EMW      -0.532100
     27 N27         -6.6440     0.5950    -0.1240 na         1 EMW      -0.030100
     28 C28         -8.0840     0.3070    -0.0130 c3         1 EMW       0.083900
     29 C29          4.7340    -0.7480    -1.0210 ca         1 EMW      -0.060300
     30 H1           9.2950     0.8570     0.7550 h1         1 EMW       0.040700
     31 H2           8.8800    -0.3450     2.0070 h1         1 EMW       0.040700
     32 H3          10.1860    -0.6760     0.8500 h1         1 EMW       0.040700
     33 H4           7.0290     1.1240     1.5230 ha         1 EMW       0.121000
     34 H5           4.6850     1.7490     1.3350 ha         1 EMW       0.128000
     35 H6          -0.3370     1.4790    -1.9800 h1         1 EMW       0.059200
     36 H7           0.8940     0.2300    -1.8340 h1         1 EMW       0.059200
     37 H8          -0.5120    -1.0640    -0.2760 h1         1 EMW       0.049700
     38 H9          -1.1110     0.5560     1.8660 h1         1 EMW       0.058700
     39 H10         -2.3540     1.7790     1.5560 h1         1 EMW       0.058700
     40 H11         -0.0510     2.7440     1.4990 h1         1 EMW       0.076700
     41 H12         -0.9010     2.9550    -0.0380 h1         1 EMW       0.076700
     42 H13          3.0090    -1.9770    -1.5270 hc         1 EMW       0.042700
     43 H14          3.4570    -0.8070    -2.7840 hc         1 EMW       0.042700
     44 H15          4.4140    -2.2740    -2.5550 hc         1 EMW       0.042700
     45 H16          6.5090    -1.8850    -1.5290 ha         1 EMW       0.126000
     46 H17          2.3890     0.1770    -1.1560 hn         1 EMW       0.152000
     47 H18         -2.1540    -0.2030    -2.7410 hc         1 EMW       0.048367
     48 H19         -0.8070    -1.3520    -2.7730 hc         1 EMW       0.048367
     49 H20         -2.2790    -1.7550    -1.8940 hc         1 EMW       0.048367
     50 H21         -5.2910    -3.7400     1.7890 hn         1 EMW       0.494500
     51 H22         -3.5610    -3.7160     1.7740 hn         1 EMW       0.494500
     52 H23         -4.1910     2.4580    -0.8420 h4         1 EMW       0.048800
     53 H24         -8.6680     1.1750    -0.3430 h1         1 EMW       0.057033
     54 H25         -8.3340    -0.5570    -0.6400 h1         1 EMW       0.057033
     55 H26         -8.3320     0.0810     1.0310 h1         1 EMW       0.057033
     56 C30          3.8560    -1.4920    -2.0260 c3         1 EMW      -0.047800
@<TRIPOS>BOND
     1     1    18 1   
     2     1    30 1   
     3     1    31 1   
     4     1    32 1   
     5     2     3 ar  
     6     2    17 ar  
     7     2    18 1   
     8     3     4 ar  
     9     3    33 1   
    10     4     5 ar  
    11     4    34 1   
    12     5    19 1   
    13     5    29 ar  
    14     6     7 2   
    15     6     8 1   
    16     6    19 1   
    17     8     9 1   
    18     8    12 1   
    19     9    10 1   
    20     9    35 1   
    21     9    36 1   
    22    10    20 1   
    23    10    21 1   
    24    10    37 1   
    25    11    12 1   
    26    11    21 1   
    27    11    38 1   
    28    11    39 1   
    29    12    40 1   
    30    12    41 1   
    31    13    16 ar  
    32    13    21 1   
    33    13    22 ar  
    34    14    15 ar  
    35    14    23 ar  
    36    15    16 ar  
    37    15    27 1   
    38    16    25 1   
    39    17    29 ar  
    40    17    45 1   
    41    19    46 1   
    42    20    47 1   
    43    20    48 1   
    44    20    49 1   
    45    22    23 ar  
    46    23    24 1   
    47    24    50 1   
    48    24    51 1   
    49    25    26 2   
    50    25    52 1   
    51    26    27 1   
    52    27    28 1   
    53    28    53 1   
    54    28    54 1   
    55    28    55 1   
    56    29    56 1   
    57    42    56 1   
    58    43    56 1   
    59    44    56 1   
@<TRIPOS>SUBSTRUCTURE
     1 EMW         1 TEMP              0 ****  ****    0 ROOT
