@<TRIPOS>MOLECULE
EMW
   56    59     1     0     0
SMALL
bcc


@<TRIPOS>ATOM
      1 C1           8.3900    -0.5060     1.7290 c3         1 EMW       0.125700
      2 C3           6.2440    -0.7240     0.7450 ca         1 EMW       0.139100
      3 C4           6.0600     0.6530     0.6790 ca         1 EMW      -0.208000
      4 C5           4.8870     1.1570     0.1310 ca         1 EMW      -0.072000
      5 C6           3.8890     0.3150    -0.3320 ca         1 EMW       0.022600
      6 C8           1.8370     1.6170    -0.1960 c          1 EMW       0.785100
      7 O9           2.0890     1.9890     0.9430 o          1 EMW      -0.624100
      8 N10          0.6940     2.0020    -0.8490 n          1 EMW      -0.467800
      9 C11          0.1310     1.3310    -1.9980 c6         1 EMW       0.075000
     10 C12         -0.8450     0.2070    -1.6330 c6         1 EMW       0.197500
     11 C16         -1.3290     1.5470     0.4040 c6         1 EMW       0.168800
     12 C17         -0.3690     2.6130    -0.0790 c6         1 EMW       0.086000
     13 C18         -2.8940    -0.0950    -0.3390 ca         1 EMW       0.791200
     14 N22         -4.9680    -1.8570     0.3470 nb         1 EMW      -0.816000
     15 C23         -5.0230    -0.5550     0.6190 ca         1 EMW       0.514800
     16 C24         -4.0450     0.4030     0.3190 ca         1 EMW      -0.530500
     17 C31          5.2450    -1.5730     0.2670 ca         1 EMW      -0.156000
     18 O2           7.3420    -1.3220     1.2480 os         1 EMW      -0.318900
     19 N7           2.7060     0.8350    -0.8990 ns         1 EMW      -0.500100
     20 C14         -1.4510    -0.2730    -2.9470 c3         1 EMW      -0.095100
     21 N15         -1.8520     0.7270    -0.6980 nh         1 EMW      -0.755300
     22 N19         -2.8290    -1.3810    -0.6180 nb         1 EMW      -0.869000
     23 C20         -3.8530    -2.1960    -0.2850 ca         1 EMW       0.959900
     24 N21         -3.7110    -3.4830    -0.6600 nv         1 EMW      -0.950500
     25 C25         -4.6160     1.6240     0.7550 cc         1 EMW       0.402800
     26 N26         -5.7980     1.4250     1.2770 nd         1 EMW      -0.532100
     27 N27         -6.0440     0.1020     1.1980 na         1 EMW      -0.000800
     28 C28         -7.2810    -0.4450     1.6900 c3         1 EMW       0.054600
     29 C29          4.0640    -1.0730    -0.2630 ca         1 EMW      -0.060300
     30 H1           8.8060     0.1310     0.9430 h1         1 EMW       0.040700
     31 H2           8.0690     0.1270     2.5600 h1         1 EMW       0.040700
     32 H3           9.1680    -1.1780     2.0820 h1         1 EMW       0.040700
     33 H4           6.8110     1.3450     1.0340 ha         1 EMW       0.139000
     34 H5           4.7600     2.2290     0.0600 ha         1 EMW       0.146000
     35 H6          -0.3990     2.0820    -2.5910 h1         1 EMW       0.059200
     36 H7           0.8950     0.9270    -2.6610 h1         1 EMW       0.059200
     37 H8          -0.2770    -0.6110    -1.1670 h1         1 EMW       0.049700
     38 H9          -0.8140     0.9090     1.1340 h1         1 EMW       0.058700
     39 H10         -2.1500     2.0280     0.9280 h1         1 EMW       0.058700
     40 H11          0.0310     3.1540     0.7740 h1         1 EMW       0.076700
     41 H12         -0.8860     3.3320    -0.7190 h1         1 EMW       0.076700
     42 H13          2.0230    -1.7620    -0.3400 hc         1 EMW       0.042700
     43 H14          2.9000    -1.9560    -1.8490 hc         1 EMW       0.042700
     44 H15          3.2290    -3.0370    -0.5040 hc         1 EMW       0.042700
     45 H16          5.3960    -2.6440     0.3230 ha         1 EMW       0.144000
     46 H17          2.4580     0.4870    -1.8100 hn         1 EMW       0.318500
     47 H18         -2.0670     0.5120    -3.3910 hc         1 EMW       0.048367
     48 H19         -0.6480    -0.4990    -3.6500 hc         1 EMW       0.048367
     49 H20         -2.0530    -1.1680    -2.8330 hc         1 EMW       0.048367
     50 H21         -4.3380    -4.1720    -0.2830 hn         1 EMW       0.439300
     51 H22         -2.8050    -3.8010    -0.9580 hn         1 EMW       0.439300
     52 H23         -4.2170     2.6250     0.6990 h4         1 EMW       0.048800
     53 H24         -8.1290     0.0140     1.1850 h1         1 EMW       0.057033
     54 H25         -7.2900    -1.5130     1.4950 h1         1 EMW       0.057033
     55 H26         -7.3720    -0.2820     2.7630 h1         1 EMW       0.057033
     56 C30          3.0000    -2.0050    -0.7620 c3         1 EMW      -0.047800
@<TRIPOS>BOND
     1     1    18 1   
     2     1    30 1   
     3     1    31 1   
     4     1    32 1   
     5     2     3 ar  
     6     2    17 ar  
     7     2    18 1   
     8     3     4 ar  
     9     3    33 1   
    10     4     5 ar  
    11     4    34 1   
    12     5    19 1   
    13     5    29 ar  
    14     6     7 2   
    15     6     8 1   
    16     6    19 1   
    17     8     9 1   
    18     8    12 1   
    19     9    10 1   
    20     9    35 1   
    21     9    36 1   
    22    10    20 1   
    23    10    21 1   
    24    10    37 1   
    25    11    12 1   
    26    11    21 1   
    27    11    38 1   
    28    11    39 1   
    29    12    40 1   
    30    12    41 1   
    31    13    16 ar  
    32    13    21 1   
    33    13    22 ar  
    34    14    15 ar  
    35    14    23 ar  
    36    15    16 ar  
    37    15    27 1   
    38    16    25 1   
    39    17    29 ar  
    40    17    45 1   
    41    19    46 1   
    42    20    47 1   
    43    20    48 1   
    44    20    49 1   
    45    22    23 ar  
    46    23    24 1   
    47    24    50 1   
    48    24    51 1   
    49    25    26 2   
    50    25    52 1   
    51    26    27 1   
    52    27    28 1   
    53    28    53 1   
    54    28    54 1   
    55    28    55 1   
    56    29    56 1   
    57    42    56 1   
    58    43    56 1   
    59    44    56 1   
@<TRIPOS>SUBSTRUCTURE
     1 EMW         1 TEMP              0 ****  ****    0 ROOT
