@<TRIPOS>MOLECULE
EMX
   44    45     1     0     0
SMALL
No Charge or Current Charge


@<TRIPOS>ATOM
      1 C13        -43.2210    10.5280   -20.1500 c3         1 EMX      -0.088900
      2 C20        -38.7630     9.6380   -24.5090 ca         1 EMX      -0.110250
      3 C21        -39.1300     9.1540   -25.7860 ca         1 EMX      -0.102100
      4 C22        -38.0820     8.6000   -26.7440 c          1 EMX       0.713100
      5 C26        -41.4620     9.7090   -25.2660 ca         1 EMX      -0.084250
      6 C28        -38.4100     5.4780   -16.7250 ca         1 EMX      -0.110250
      7 C04        -37.4020     5.5720   -15.7370 ca         1 EMX      -0.102100
      8 C05        -37.1140     6.8470   -15.1990 ca         1 EMX      -0.110250
      9 C06        -37.8090     7.9890   -15.6330 ca         1 EMX      -0.084250
     10 C07        -38.8150     7.8910   -16.6180 ca         1 EMX      -0.180600
     11 C08        -39.5540     9.1330   -17.0720 c          1 EMX       0.616200
     12 C11        -41.2660    10.0050   -18.5250 c3         1 EMX       0.166600
     13 C12        -42.2530     9.4600   -19.5780 c3         1 EMX      -0.088900
     14 C14        -42.5380    11.7220   -20.8650 c3         1 EMX       0.166600
     15 C16        -42.1490    10.7400   -23.0550 c          1 EMX       0.616200
     16 C18        -41.0930    10.1940   -23.9930 ca         1 EMX      -0.180600
     17 C19        -39.7290    10.1500   -23.6250 ca         1 EMX      -0.084250
     18 C25        -40.4960     9.1970   -26.1490 ca         1 EMX      -0.110250
     19 C27        -39.1060     6.6190   -17.1600 ca         1 EMX      -0.084250
     20 O01        -36.9330     3.2510   -15.7590 o          1 EMX      -0.717000
     21 O03        -35.7840     4.4650   -14.4100 o          1 EMX      -0.717000
     22 O09        -39.3210    10.2480   -16.6190 o          1 EMX      -0.531000
     23 O10        -40.5060     8.8920   -18.0290 os         1 EMX      -0.440100
     24 O15        -41.6380    11.2320   -21.8790 os         1 EMX      -0.440100
     25 O17        -43.3380    10.7790   -23.3480 o          1 EMX      -0.531000
     26 O23        -38.4470     8.1880   -27.8370 o          1 EMX      -0.717000
     27 O24        -36.9120     8.5860   -26.3890 o          1 EMX      -0.717000
     28 H1         -43.8370    10.9230   -19.3320 hc         1 EMX       0.052200
     29 H2         -43.9180    10.0400   -20.8410 hc         1 EMX       0.052200
     30 H3         -37.7220     9.6190   -24.1950 ha         1 EMX       0.130500
     31 H4         -42.5040     9.7270   -25.5780 ha         1 EMX       0.107000
     32 H5         -38.6590     4.5130   -17.1620 ha         1 EMX       0.130500
     33 H6         -36.3450     6.9590   -14.4370 ha         1 EMX       0.130500
     34 H7         -37.5620     8.9550   -15.1970 ha         1 EMX       0.107000
     35 H8         -40.6050    10.7510   -18.9860 h1         1 EMX       0.044950
     36 H9         -41.8260    10.4870   -17.7120 h1         1 EMX       0.044950
     37 H10        -42.8490     8.6610   -19.1200 hc         1 EMX       0.052200
     38 H11        -41.6880     8.9990   -20.3970 hc         1 EMX       0.052200
     39 H12        -41.9750    12.3030   -20.1220 h1         1 EMX       0.044950
     40 H13        -43.2960    12.3920   -21.2940 h1         1 EMX       0.044950
     41 H14        -39.4040    10.5110   -22.6520 ha         1 EMX       0.107000
     42 H15        -40.8150     8.8330   -27.1230 ha         1 EMX       0.130500
     43 H16        -39.8740     6.5010   -17.9210 ha         1 EMX       0.107000
     44 C02        -36.6480     4.3350   -15.2660 c          1 EMX       0.713100
@<TRIPOS>BOND
     1     1    13 1   
     2     1    14 1   
     3     1    28 1   
     4     1    29 1   
     5     2     3 ar  
     6     2    17 ar  
     7     2    30 1   
     8     3     4 1   
     9     3    18 ar  
    10     4    26 1   
    11     4    27 1   
    12     5    16 ar  
    13     5    18 ar  
    14     5    31 1   
    15     6     7 ar  
    16     6    19 ar  
    17     6    32 1   
    18     7     8 ar  
    19     7    44 1   
    20     8     9 ar  
    21     8    33 1   
    22     9    10 ar  
    23     9    34 1   
    24    10    11 1   
    25    10    19 ar  
    26    11    22 2   
    27    11    23 1   
    28    12    13 1   
    29    12    23 1   
    30    12    35 1   
    31    12    36 1   
    32    13    37 1   
    33    13    38 1   
    34    14    24 1   
    35    14    39 1   
    36    14    40 1   
    37    15    16 1   
    38    15    24 1   
    39    15    25 2   
    40    16    17 ar  
    41    17    41 1   
    42    18    42 1   
    43    19    43 1   
    44    20    44 1   
    45    21    44 1   
@<TRIPOS>SUBSTRUCTURE
     1 EMX         1 TEMP              0 ****  ****    0 ROOT
