@<TRIPOS>MOLECULE
EMX
   44    45     1     0     0
SMALL
abcg2


@<TRIPOS>ATOM
      1 C13        -43.3400    10.5630   -20.1010 c3         1 EMX      -0.088900
      2 C20        -38.7040     9.4920   -24.1000 ca         1 EMX      -0.110250
      3 C21        -38.9900     9.0350   -25.3840 ca         1 EMX      -0.102100
      4 C22        -37.8960     8.4240   -26.2620 c          1 EMX       0.713100
      5 C26        -41.2900     9.7050   -25.0600 ca         1 EMX      -0.084250
      6 C28        -38.5610     5.5430   -16.8750 ca         1 EMX      -0.110250
      7 C04        -37.4110     5.6710   -16.0990 ca         1 EMX      -0.102100
      8 C05        -37.0040     6.9500   -15.7260 ca         1 EMX      -0.110250
      9 C06        -37.7230     8.0670   -16.1150 ca         1 EMX      -0.084250
     10 C07        -38.8700     7.9310   -16.8950 ca         1 EMX      -0.180600
     11 C08        -39.5970     9.1600   -17.2970 c          1 EMX       0.616200
     12 C11        -41.4000    10.0220   -18.5620 c3         1 EMX       0.166600
     13 C12        -42.4310     9.4780   -19.5290 c3         1 EMX      -0.088900
     14 C14        -42.6250    11.6820   -20.8430 c3         1 EMX       0.166600
     15 C16        -42.0930    10.7370   -22.9610 c          1 EMX       0.616200
     16 C18        -40.9950    10.1620   -23.7760 ca         1 EMX      -0.180600
     17 C19        -39.6890    10.0490   -23.3010 ca         1 EMX      -0.084250
     18 C25        -40.2980     9.1500   -25.8500 ca         1 EMX      -0.110250
     19 C27        -39.2850     6.6550   -17.2740 ca         1 EMX      -0.084250
     20 O01        -37.0630     3.3370   -16.0370 o          1 EMX      -0.717000
     21 O03        -35.5920     4.6530   -14.9930 o          1 EMX      -0.717000
     22 O09        -39.2670    10.2740   -16.9630 o          1 EMX      -0.531000
     23 O10        -40.6450     8.9090   -18.0670 os         1 EMX      -0.440100
     24 O15        -41.6690    11.1870   -21.7880 os         1 EMX      -0.440100
     25 O17        -43.2430    10.7930   -23.3260 o          1 EMX      -0.531000
     26 O23        -38.2510     8.0340   -27.3900 o          1 EMX      -0.717000
     27 O24        -36.7550     8.3740   -25.7670 o          1 EMX      -0.717000
     28 H1         -43.9100    11.0350   -19.2950 hc         1 EMX       0.052200
     29 H2         -44.0750    10.0940   -20.7570 hc         1 EMX       0.052200
     30 H3         -37.6950     9.4090   -23.7200 ha         1 EMX       0.130500
     31 H4         -42.2990     9.7850   -25.4420 ha         1 EMX       0.107000
     32 H5         -38.8920     4.5570   -17.1720 ha         1 EMX       0.130500
     33 H6         -36.1140     7.0710   -15.1260 ha         1 EMX       0.130500
     34 H7         -37.3890     9.0520   -15.8160 ha         1 EMX       0.107000
     35 H8         -40.7240    10.7270   -19.0510 h1         1 EMX       0.044950
     36 H9         -41.8820    10.5430   -17.7300 h1         1 EMX       0.044950
     37 H10        -43.0570     8.7450   -19.0150 hc         1 EMX       0.052200
     38 H11        -41.9270     8.9430   -20.3370 hc         1 EMX       0.052200
     39 H12        -42.0380    12.2930   -20.1590 h1         1 EMX       0.044950
     40 H13        -43.3470    12.3370   -21.3340 h1         1 EMX       0.044950
     41 H14        -39.4320    10.3920   -22.3080 ha         1 EMX       0.107000
     42 H15        -40.5410     8.8000   -26.8440 ha         1 EMX       0.130500
     43 H16        -40.1700     6.5190   -17.8800 ha         1 EMX       0.107000
     44 C02        -36.6150     4.4380   -15.6690 c          1 EMX       0.713100
@<TRIPOS>BOND
     1     1    13 1   
     2     1    14 1   
     3     1    28 1   
     4     1    29 1   
     5     2     3 ar  
     6     2    17 ar  
     7     2    30 1   
     8     3     4 1   
     9     3    18 ar  
    10     4    26 1   
    11     4    27 1   
    12     5    16 ar  
    13     5    18 ar  
    14     5    31 1   
    15     6     7 ar  
    16     6    19 ar  
    17     6    32 1   
    18     7     8 ar  
    19     7    44 1   
    20     8     9 ar  
    21     8    33 1   
    22     9    10 ar  
    23     9    34 1   
    24    10    11 1   
    25    10    19 ar  
    26    11    22 2   
    27    11    23 1   
    28    12    13 1   
    29    12    23 1   
    30    12    35 1   
    31    12    36 1   
    32    13    37 1   
    33    13    38 1   
    34    14    24 1   
    35    14    39 1   
    36    14    40 1   
    37    15    16 1   
    38    15    24 1   
    39    15    25 2   
    40    16    17 ar  
    41    17    41 1   
    42    18    42 1   
    43    19    43 1   
    44    20    44 1   
    45    21    44 1   
@<TRIPOS>SUBSTRUCTURE
     1 EMX         1 TEMP              0 ****  ****    0 ROOT
