@<TRIPOS>MOLECULE
EMZ
   27    27     1     0     0
SMALL
bcc


@<TRIPOS>ATOM
      1 C4          -0.1160     1.3940    -0.1470 c6         1 EMZ       0.123100
      2 C5           0.8630     0.2520    -0.3960 c6         1 EMZ       0.162100
      3 C6           2.2700     0.6000     0.0400 c3         1 EMZ       0.144400
      4 C3          -1.5130     0.9440    -0.5630 c6         1 EMZ       0.117100
      5 CAM          4.4780    -0.1490    -0.0400 c3         1 EMZ       0.124700
      6 O6           3.1450    -0.4030    -0.4050 os         1 EMZ      -0.404600
      7 O5           0.4580    -0.9170     0.2830 os         1 EMZ      -0.412600
      8 C1          -0.7870    -1.4020    -0.1570 c6         1 EMZ       0.323900
      9 O1          -1.0850    -2.5500     0.5480 oh         1 EMZ      -0.582800
     10 C2          -1.8780    -0.3690     0.1180 c6         1 EMZ       0.082100
     11 O2          -3.1220    -0.7780    -0.3990 oh         1 EMZ      -0.608800
     12 O3          -2.4110     1.9780    -0.2430 oh         1 EMZ      -0.605800
     13 O4          -0.0640     1.7480     1.2120 oh         1 EMZ      -0.585800
     14 H1           0.1810     2.2370    -0.7890 h1         1 EMZ       0.049700
     15 H2           0.8770     0.0740    -1.4840 h1         1 EMZ       0.045700
     16 H3           2.5380     1.5750    -0.3930 h1         1 EMZ       0.042200
     17 H4           2.3180     0.7090     1.1320 h1         1 EMZ       0.042200
     18 H5          -1.4940     0.7660    -1.6510 h1         1 EMZ       0.047700
     19 H6           5.0900    -0.9740    -0.4040 h1         1 EMZ       0.028700
     20 H7           4.8560     0.7820    -0.4790 h1         1 EMZ       0.028700
     21 H8           4.6010    -0.0810     1.0470 h1         1 EMZ       0.028700
     22 H9          -0.7410    -1.5940    -1.2440 h2         1 EMZ       0.024700
     23 H10         -0.6100    -3.2950     0.1660 ho         1 EMZ       0.425000
     24 H11         -1.9310    -0.2080     1.2040 h1         1 EMZ       0.076700
     25 H12         -3.4650    -1.4900     0.1510 ho         1 EMZ       0.426000
     26 H13         -3.3090     1.6550    -0.3670 ho         1 EMZ       0.431000
     27 H14         -0.7630     2.3900     1.3790 ho         1 EMZ       0.423000
@<TRIPOS>BOND
     1     1     2 1   
     2     1     4 1   
     3     1    13 1   
     4     1    14 1   
     5     2     3 1   
     6     2     7 1   
     7     2    15 1   
     8     3     6 1   
     9     3    16 1   
    10     3    17 1   
    11     4    10 1   
    12     4    12 1   
    13     4    18 1   
    14     5     6 1   
    15     5    19 1   
    16     5    20 1   
    17     5    21 1   
    18     7     8 1   
    19     8     9 1   
    20     8    10 1   
    21     8    22 1   
    22     9    23 1   
    23    10    11 1   
    24    10    24 1   
    25    11    25 1   
    26    12    26 1   
    27    13    27 1   
@<TRIPOS>SUBSTRUCTURE
     1 EMZ         1 TEMP              0 ****  ****    0 ROOT
