@<TRIPOS>MOLECULE
EMZ
   27    27     1     0     0
SMALL
No Charge or Current Charge


@<TRIPOS>ATOM
      1 C4          -0.1190     1.4440    -0.1470 c6         1 EMZ       0.146300
      2 C5           0.8640     0.2560    -0.4290 c6         1 EMZ       0.185300
      3 C6           2.3130     0.5600     0.0580 c3         1 EMZ       0.167600
      4 C3          -1.5610     1.0250    -0.5720 c6         1 EMZ       0.140300
      5 CAM          4.5980    -0.2290    -0.0940 c3         1 EMZ       0.147900
      6 O6           3.2290    -0.4130    -0.4900 os         1 EMZ      -0.451000
      7 O5           0.4060    -0.9600     0.2250 os         1 EMZ      -0.459000
      8 C1          -0.8690    -1.4010    -0.2430 c6         1 EMZ       0.370300
      9 O1          -1.1190    -2.6080     0.4480 oh         1 EMZ      -0.705000
     10 C2          -1.9620    -0.3310     0.0840 c6         1 EMZ       0.105300
     11 O2          -3.2820    -0.7390    -0.3560 oh         1 EMZ      -0.731000
     12 O3          -2.5140     2.0410    -0.2030 oh         1 EMZ      -0.728000
     13 O4          -0.1430     1.8350     1.2400 oh         1 EMZ      -0.708000
     14 H1           0.1870     2.3000    -0.7680 h1         1 EMZ       0.049700
     15 H2           0.9030     0.0800    -1.5140 h1         1 EMZ       0.045700
     16 H3           2.5890     1.5690    -0.2760 h1         1 EMZ       0.042200
     17 H4           2.3340     0.5460     1.1550 h1         1 EMZ       0.042200
     18 H5          -1.5660     0.8900    -1.6640 h1         1 EMZ       0.047700
     19 H6           5.2330    -1.0010    -0.5460 h1         1 EMZ       0.028700
     20 H7           4.9700     0.7520    -0.4190 h1         1 EMZ       0.028700
     21 H8           4.7020    -0.2960     0.9960 h1         1 EMZ       0.028700
     22 H9          -0.8230    -1.5890    -1.3270 h2         1 EMZ       0.024700
     23 H10         -0.2380    -2.8270     0.8260 ho         1 EMZ       0.524000
     24 H11         -1.9630    -0.1960     1.1770 h1         1 EMZ       0.076700
     25 H12         -3.3660    -1.6900    -0.0970 ho         1 EMZ       0.525000
     26 H13         -3.3940     1.5960    -0.2860 ho         1 EMZ       0.530000
     27 H14         -1.0200     2.2810     1.3410 ho         1 EMZ       0.522000
@<TRIPOS>BOND
     1     1     2 1   
     2     1     4 1   
     3     1    13 1   
     4     1    14 1   
     5     2     3 1   
     6     2     7 1   
     7     2    15 1   
     8     3     6 1   
     9     3    16 1   
    10     3    17 1   
    11     4    10 1   
    12     4    12 1   
    13     4    18 1   
    14     5     6 1   
    15     5    19 1   
    16     5    20 1   
    17     5    21 1   
    18     7     8 1   
    19     8     9 1   
    20     8    10 1   
    21     8    22 1   
    22     9    23 1   
    23    10    11 1   
    24    10    24 1   
    25    11    25 1   
    26    12    26 1   
    27    13    27 1   
@<TRIPOS>SUBSTRUCTURE
     1 EMZ         1 TEMP              0 ****  ****    0 ROOT
