@<TRIPOS>MOLECULE
EN1
   20    20     1     0     0
SMALL
abcg2


@<TRIPOS>ATOM
      1 C1           2.3090    -0.9250     0.1270 c          1 EN1       0.724200
      2 O1           1.8550    -1.4190     1.1710 o          1 EN1      -0.694500
      3 C2           2.2050     0.5900    -0.0030 ce         1 EN1       0.080900
      4 O2           2.8640    -1.5020    -0.8250 o          1 EN1      -0.694500
      5 C3           1.0760     1.3070    -0.0880 cf         1 EN1      -0.375200
      6 O3          -4.2020    -0.6660    -0.2870 oh         1 EN1      -0.552100
      7 C4          -0.2870     0.7750    -0.1440 ca         1 EN1       0.019200
      8 O4           3.4350     1.1510    -0.0020 oh         1 EN1      -0.517100
      9 C5          -1.3390     1.5070     0.4100 ca         1 EN1      -0.081500
     10 C6          -2.6490     1.0530     0.3760 ca         1 EN1      -0.174000
     11 C7          -2.9470    -0.1660    -0.2250 ca         1 EN1       0.090100
     12 C8          -1.9180    -0.9030    -0.8050 ca         1 EN1      -0.174000
     13 C9          -0.6170    -0.4320    -0.7700 ca         1 EN1      -0.081500
     14 H3           1.1580     2.3920    -0.1170 ha         1 EN1       0.137000
     15 HO3         -4.8210    -0.0600     0.1340 ho         1 EN1       0.444000
     16 HO4          3.3620     2.1110    -0.0810 ho         1 EN1       0.412000
     17 H5          -1.1300     2.4570     0.8880 ha         1 EN1       0.118500
     18 H6          -3.4370     1.6510     0.8220 ha         1 EN1       0.100000
     19 H8          -2.1420    -1.8410    -1.3000 ha         1 EN1       0.100000
     20 H9           0.1510    -1.0060    -1.2720 ha         1 EN1       0.118500
@<TRIPOS>BOND
     1     1     2 1   
     2     1     3 1   
     3     1     4 1   
     4     3     5 2   
     5     3     8 1   
     6     5     7 1   
     7     5    14 1   
     8     6    11 1   
     9     6    15 1   
    10     7     9 ar  
    11     7    13 ar  
    12     8    16 1   
    13     9    10 ar  
    14     9    17 1   
    15    10    11 ar  
    16    10    18 1   
    17    11    12 ar  
    18    12    13 ar  
    19    12    19 1   
    20    13    20 1   
@<TRIPOS>SUBSTRUCTURE
     1 EN1         1 TEMP              0 ****  ****    0 ROOT
