@<TRIPOS>MOLECULE
EN1
   20    20     1     0     0
SMALL
No Charge or Current Charge


@<TRIPOS>ATOM
      1 C1           2.5150    -0.9600     0.2540 c          1 EN1       0.724200
      2 O1           1.5690    -1.6740     0.5630 o          1 EN1      -0.694500
      3 C2           2.2850     0.5430    -0.0600 ce         1 EN1       0.080900
      4 O2           3.6640    -1.3950     0.2380 o          1 EN1      -0.694500
      5 C3           1.0820     1.1940    -0.1810 cf         1 EN1      -0.375200
      6 O3          -4.3080    -0.5290    -0.2150 oh         1 EN1      -0.552100
      7 C4          -0.3100     0.7060    -0.1700 ca         1 EN1       0.019200
      8 O4           3.4100     1.3110    -0.1970 oh         1 EN1      -0.517100
      9 C5          -1.2940     1.4520     0.5070 ca         1 EN1      -0.081500
     10 C6          -2.6380     1.0350     0.5000 ca         1 EN1      -0.174000
     11 C7          -3.0090    -0.1230    -0.2010 ca         1 EN1       0.090100
     12 C8          -2.0410    -0.8570    -0.9010 ca         1 EN1      -0.174000
     13 C9          -0.6970    -0.4410    -0.8920 ca         1 EN1      -0.081500
     14 H3           1.1250     2.2720    -0.3430 ha         1 EN1       0.137000
     15 HO3         -4.8360     0.1020     0.3210 ho         1 EN1       0.444000
     16 HO4          3.0930     2.2180    -0.3830 ho         1 EN1       0.412000
     17 H5          -1.0140     2.3530     1.0480 ha         1 EN1       0.118500
     18 H6          -3.3830     1.6170     1.0380 ha         1 EN1       0.100000
     19 H8          -2.3280    -1.7460    -1.4570 ha         1 EN1       0.100000
     20 H9           0.0410    -1.0030    -1.4590 ha         1 EN1       0.118500
@<TRIPOS>BOND
     1     1     2 1   
     2     1     3 1   
     3     1     4 1   
     4     3     5 2   
     5     3     8 1   
     6     5     7 1   
     7     5    14 1   
     8     6    11 1   
     9     6    15 1   
    10     7     9 ar  
    11     7    13 ar  
    12     8    16 1   
    13     9    10 ar  
    14     9    17 1   
    15    10    11 ar  
    16    10    18 1   
    17    11    12 ar  
    18    12    13 ar  
    19    12    19 1   
    20    13    20 1   
@<TRIPOS>SUBSTRUCTURE
     1 EN1         1 TEMP              0 ****  ****    0 ROOT
