@<TRIPOS>MOLECULE
EN2
   42    43     1     0     0
SMALL
bcc


@<TRIPOS>ATOM
      1 C01         -8.0440     0.1880    -0.5420 c3         1 EN2       0.071300
      2 C03         -5.6480     0.5030    -0.3120 cc         1 EN2       0.090600
      3 C04         -4.3810     0.0990    -0.0030 cd         1 EN2      -0.291200
      4 C05         -4.2190    -1.2440     0.4220 cd         1 EN2      -0.020000
      5 C06         -5.2860    -2.0730     0.5240 cc         1 EN2      -0.276200
      6 C07         -6.6200    -1.6370     0.2150 c          1 EN2       0.692700
      7 C09         -3.2810     1.0840    -0.1690 c          1 EN2       0.704300
      8 C12         -0.9380     1.6040     0.3820 c3         1 EN2       0.102000
      9 C13          0.3120     0.7400     0.3040 c3         1 EN2      -0.114400
     10 C14          1.5680     1.5970     0.2820 c3         1 EN2       0.104000
     11 C16          3.9520     1.2250    -0.1440 c          1 EN2       0.681700
     12 C18          5.0570     0.2200    -0.1840 ca         1 EN2      -0.169600
     13 C19          4.8350    -1.1310    -0.4410 ca         1 EN2      -0.064000
     14 C20          5.8910    -2.0270    -0.4950 ca         1 EN2      -0.181000
     15 C21          7.1710    -1.5520    -0.2850 ca         1 EN2       0.157900
     16 C23          7.4300    -0.2170    -0.0360 ca         1 EN2      -0.181000
     17 C24          6.3640     0.6670     0.0030 ca         1 EN2      -0.064000
     18 F22          8.1960    -2.4130    -0.3300 f          1 EN2      -0.137900
     19 N02         -6.7160    -0.3080    -0.2060 n          1 EN2      -0.333000
     20 N11         -2.1260     0.7830     0.4490 ns         1 EN2      -0.571900
     21 N15          2.7440     0.7570     0.2100 ns         1 EN2      -0.572900
     22 O08         -7.6280    -2.3280     0.2920 o          1 EN2      -0.618500
     23 O10         -3.4370     2.1010    -0.8360 o          1 EN2      -0.616100
     24 O17          4.1530     2.3990    -0.4250 o          1 EN2      -0.596100
     25 H1          -8.4680    -0.3880    -1.3610 h1         1 EN2       0.059700
     26 H2          -8.7050     0.1150     0.3190 h1         1 EN2       0.059700
     27 H3          -7.9670     1.2280    -0.8420 h1         1 EN2       0.059700
     28 H4          -5.8500     1.5090    -0.6530 h4         1 EN2       0.174000
     29 H5          -3.2370    -1.6390     0.6500 ha         1 EN2       0.131000
     30 H6          -5.1640    -3.1010     0.8360 ha         1 EN2       0.161000
     31 H7          -0.8830     2.2650     1.2530 h1         1 EN2       0.060200
     32 H8          -1.0080     2.2420    -0.4980 h1         1 EN2       0.060200
     33 H9           0.3460     0.0630     1.1640 hc         1 EN2       0.047700
     34 H10          0.2720     0.1180    -0.5940 hc         1 EN2       0.047700
     35 H11          1.5510     2.2590    -0.5850 h1         1 EN2       0.056700
     36 H12          1.6020     2.2350     1.1710 h1         1 EN2       0.056700
     37 H13          3.8370    -1.5050    -0.6310 ha         1 EN2       0.146000
     38 H14          5.7200    -3.0750    -0.7050 ha         1 EN2       0.154500
     39 H15          8.4430     0.1270     0.1220 ha         1 EN2       0.154500
     40 H16          6.5540     1.7150     0.1890 ha         1 EN2       0.146000
     41 H17         -2.1100     0.0290     1.1160 hn         1 EN2       0.310500
     42 H18          2.6760    -0.1650     0.6090 hn         1 EN2       0.312500
@<TRIPOS>BOND
     1     1    19 1   
     2     1    25 1   
     3     1    26 1   
     4     1    27 1   
     5     2     3 2   
     6     2    19 1   
     7     2    28 1   
     8     3     4 1   
     9     3     7 1   
    10     4     5 2   
    11     4    29 1   
    12     5     6 1   
    13     5    30 1   
    14     6    19 1   
    15     6    22 2   
    16     7    20 1   
    17     7    23 2   
    18     8     9 1   
    19     8    20 1   
    20     8    31 1   
    21     8    32 1   
    22     9    10 1   
    23     9    33 1   
    24     9    34 1   
    25    10    21 1   
    26    10    35 1   
    27    10    36 1   
    28    11    12 1   
    29    11    21 1   
    30    11    24 2   
    31    12    13 ar  
    32    12    17 ar  
    33    13    14 ar  
    34    13    37 1   
    35    14    15 ar  
    36    14    38 1   
    37    15    16 ar  
    38    15    18 1   
    39    16    17 ar  
    40    16    39 1   
    41    17    40 1   
    42    20    41 1   
    43    21    42 1   
@<TRIPOS>SUBSTRUCTURE
     1 EN2         1 TEMP              0 ****  ****    0 ROOT
