@<TRIPOS>MOLECULE
EN2
   42    43     1     0     0
SMALL
No Charge or Current Charge


@<TRIPOS>ATOM
      1 C01         -8.2930     0.2350     0.0070 c3         1 EN2       0.071300
      2 C03         -5.8180     0.5930    -0.0070 cc         1 EN2       0.040600
      3 C04         -4.4980     0.1670     0.0060 cd         1 EN2      -0.291200
      4 C05         -4.2510    -1.2590     0.0520 cd         1 EN2      -0.070000
      5 C06         -5.3310    -2.1150     0.0800 cc         1 EN2      -0.326200
      6 C07         -6.7290    -1.6790     0.0670 c          1 EN2       0.550200
      7 C09         -3.4420     1.2200    -0.0290 c          1 EN2       0.637300
      8 C12         -0.9590     1.5750    -0.0430 c3         1 EN2       0.102000
      9 C13          0.3260     0.7270    -0.0160 c3         1 EN2      -0.114400
     10 C14          1.6010     1.5880    -0.0450 c3         1 EN2       0.104000
     11 C16          4.0920     1.2590    -0.0360 c          1 EN2       0.614700
     12 C18          5.2190     0.2460    -0.0040 ca         1 EN2      -0.169600
     13 C19          4.9800    -1.1510     0.0400 ca         1 EN2      -0.046000
     14 C20          6.0550    -2.0570     0.0680 ca         1 EN2      -0.163000
     15 C21          7.3740    -1.5840     0.0530 ca         1 EN2       0.193000
     16 C23          7.6280    -0.2080     0.0100 ca         1 EN2      -0.163000
     17 C24          6.5590     0.7040    -0.0190 ca         1 EN2      -0.046000
     18 F22          8.4030    -2.4590     0.0800 f          1 EN2      -0.173000
     19 N02         -6.9060    -0.2850     0.0220 n          1 EN2      -0.266000
     20 N11         -2.1560     0.7350    -0.0150 ns         1 EN2      -0.504900
     21 N15          2.8070     0.7600    -0.0190 ns         1 EN2      -0.505900
     22 O08         -7.6620    -2.4700     0.0940 o          1 EN2      -0.543000
     23 O10         -3.6810     2.4180    -0.0680 o          1 EN2      -0.616100
     24 O17          4.2990     2.4640    -0.0740 o          1 EN2      -0.596100
     25 H1          -8.8220    -0.1490    -0.8750 h1         1 EN2       0.059700
     26 H2          -8.8210    -0.0910     0.9120 h1         1 EN2       0.059700
     27 H3          -8.3020     1.3320    -0.0290 h1         1 EN2       0.059700
     28 H4          -6.1270     1.6340    -0.0400 h4         1 EN2       0.224000
     29 H5          -3.2450    -1.6730     0.0640 ha         1 EN2       0.181000
     30 H6          -5.1940    -3.1900     0.1150 ha         1 EN2       0.211000
     31 H7          -0.9770     2.2470     0.8260 h1         1 EN2       0.060200
     32 H8          -0.9780     2.1890    -0.9530 h1         1 EN2       0.060200
     33 H9           0.3300     0.1060     0.8880 hc         1 EN2       0.047700
     34 H10          0.3280     0.0490    -0.8790 hc         1 EN2       0.047700
     35 H11          1.6120     2.2020    -0.9560 h1         1 EN2       0.056700
     36 H12          1.6130     2.2590     0.8240 h1         1 EN2       0.056700
     37 H13          3.9700    -1.5530     0.0530 ha         1 EN2       0.128000
     38 H14          5.8660    -3.1270     0.1020 ha         1 EN2       0.136500
     39 H15          8.6540     0.1520    -0.0020 ha         1 EN2       0.136500
     40 H16          6.7760     1.7700    -0.0520 ha         1 EN2       0.128000
     41 H17         -2.0440    -0.2680     0.0180 hn         1 EN2       0.310500
     42 H18          2.7030    -0.2450     0.0120 hn         1 EN2       0.312500
@<TRIPOS>BOND
     1     1    19 1   
     2     1    25 1   
     3     1    26 1   
     4     1    27 1   
     5     2     3 2   
     6     2    19 1   
     7     2    28 1   
     8     3     4 1   
     9     3     7 1   
    10     4     5 2   
    11     4    29 1   
    12     5     6 1   
    13     5    30 1   
    14     6    19 1   
    15     6    22 2   
    16     7    20 1   
    17     7    23 2   
    18     8     9 1   
    19     8    20 1   
    20     8    31 1   
    21     8    32 1   
    22     9    10 1   
    23     9    33 1   
    24     9    34 1   
    25    10    21 1   
    26    10    35 1   
    27    10    36 1   
    28    11    12 1   
    29    11    21 1   
    30    11    24 2   
    31    12    13 ar  
    32    12    17 ar  
    33    13    14 ar  
    34    13    37 1   
    35    14    15 ar  
    36    14    38 1   
    37    15    16 ar  
    38    15    18 1   
    39    16    17 ar  
    40    16    39 1   
    41    17    40 1   
    42    20    41 1   
    43    21    42 1   
@<TRIPOS>SUBSTRUCTURE
     1 EN2         1 TEMP              0 ****  ****    0 ROOT
