@<TRIPOS>MOLECULE
EN3
   77    81     1     0     0
SMALL
bcc


@<TRIPOS>ATOM
      1 C10         20.1950     5.5240    44.6260 ca         1 EN3       0.144100
      2 C13         30.5320    10.0640    42.8310 c          1 EN3       0.679100
      3 C17         30.0810     6.8390    43.0720 ca         1 EN3      -0.208000
      4 C20         32.5920     6.1700    44.0310 ca         1 EN3      -0.092000
      5 C21         32.4330     7.3170    43.2600 ca         1 EN3      -0.141000
      6 C24         23.9220    13.2680    44.5840 cc         1 EN3       0.372700
      7 C28         25.0210    15.3890    43.8000 c3         1 EN3      -0.067400
      8 C1          22.2860    11.9200    45.6360 cc         1 EN3       0.506300
      9 N2          21.4180    10.9830    46.1290 ns         1 EN3      -0.539400
     10 C3          21.4080     9.6720    45.7530 c          1 EN3       0.672100
     11 C4          20.4000     8.8150    46.4860 c3         1 EN3      -0.102100
     12 O5          22.1800     9.2510    44.9160 o          1 EN3      -0.558100
     13 C6          19.8800     7.6980    45.6290 ca         1 EN3      -0.049300
     14 C7          18.6570     7.8220    44.9840 ca         1 EN3      -0.154000
     15 C8          18.2030     6.7920    44.1690 ca         1 EN3      -0.093000
     16 C09         18.9620     5.6510    43.9820 ca         1 EN3      -0.153000
     17 C11         20.6440     6.5460    45.4570 ca         1 EN3      -0.189000
     18 O12         20.8700     4.3800    44.3930 os         1 EN3      -0.321900
     19 C14         30.9640     8.8940    41.9660 c3         1 EN3      -0.112100
     20 O15         30.8800    10.1860    43.9880 o          1 EN3      -0.563100
     21 C16         31.1760     7.6500    42.7790 ca         1 EN3      -0.040300
     22 C18         30.2420     5.6980    43.8520 ca         1 EN3       0.149100
     23 C19         31.5110     5.3630    44.3310 ca         1 EN3      -0.156000
     24 O22         29.2390     4.8650    44.1920 os         1 EN3      -0.327900
     25 S23         23.5080    11.5830    44.4670 ss         1 EN3      -0.188800
     26 N25         23.1800    13.9160    45.4150 nd         1 EN3      -0.308000
     27 N26         22.2430    13.1530    46.0220 nd         1 EN3      -0.392000
     28 C27         25.0400    13.8630    43.7950 c3         1 EN3      -0.105700
     29 C29         26.0520    16.0320    42.8760 c3         1 EN3      -0.071400
     30 C30         27.5100    15.9070    43.3180 c3         1 EN3      -0.118700
     31 C31         29.2470    12.1770    42.6280 ca         1 EN3       0.483200
     32 N32         29.7500    10.9660    42.1770 ns         1 EN3      -0.557400
     33 N33         28.5870    12.8370    41.6880 nb         1 EN3      -0.388000
     34 N34         28.0450    14.0020    41.9340 nb         1 EN3      -0.294000
     35 C35         28.1340    14.5530    43.1330 ca         1 EN3       0.328600
     36 C36         28.8120    13.9010    44.1670 ca         1 EN3      -0.185300
     37 C37         29.3890    12.6820    43.9260 ca         1 EN3      -0.209300
     38 C38         22.2040     4.2390    44.8540 c3         1 EN3       0.142400
     39 C39         23.2040     5.0680    44.0520 c3         1 EN3      -0.085200
     40 C40         27.9200     5.1650    43.7660 c3         1 EN3       0.143400
     41 C41         26.9820     4.1400    44.3800 c3         1 EN3      -0.046200
     42 C42         25.5890     4.3330    43.8660 c2         1 EN3      -0.170200
     43 C43         24.5910     4.8580    44.5700 c2         1 EN3      -0.160200
     44 H1          29.1100     7.1170    42.6810 ha         1 EN3       0.133000
     45 H3          33.2870     7.9430    43.0320 ha         1 EN3       0.135000
     46 H5          24.0290    15.7250    43.4900 hc         1 EN3       0.054200
     47 H6          25.1620    15.7570    44.8190 hc         1 EN3       0.054200
     48 H8          20.7520    11.3160    46.8130 hn         1 EN3       0.345500
     49 H9          20.9130     8.4200    47.3680 hc         1 EN3       0.072700
     50 H10         19.5780     9.4290    46.8570 hc         1 EN3       0.072700
     51 H11         18.0590     8.7160    45.1160 ha         1 EN3       0.131000
     52 H12         17.2480     6.8820    43.6690 ha         1 EN3       0.135000
     53 H13         18.6090     4.8520    43.3430 ha         1 EN3       0.147000
     54 H14         21.5860     6.4690    45.9820 ha         1 EN3       0.139000
     55 H15         30.2380     8.7180    41.1700 hc         1 EN3       0.070700
     56 H16         31.8960     9.1920    41.4740 hc         1 EN3       0.070700
     57 H17         31.6370     4.4720    44.9330 ha         1 EN3       0.146000
     58 H18         25.9800    13.4820    44.2040 hc         1 EN3       0.061200
     59 H19         24.9900    13.4940    42.7670 hc         1 EN3       0.061200
     60 H20         25.9390    15.6430    41.8610 hc         1 EN3       0.052200
     61 H21         25.8220    17.0980    42.8170 hc         1 EN3       0.052200
     62 H22         28.1040    16.6280    42.7490 hc         1 EN3       0.053200
     63 H23         27.6050    16.2010    44.3660 hc         1 EN3       0.053200
     64 H24         29.5150    10.7700    41.2130 hn         1 EN3       0.337500
     65 H25         28.8760    14.3540    45.1480 ha         1 EN3       0.152000
     66 H26         29.9180    12.1470    44.6970 ha         1 EN3       0.183000
     67 H27         22.2770     4.4650    45.9240 h1         1 EN3       0.054700
     68 H28         22.4330     3.1790    44.7370 h1         1 EN3       0.054700
     69 H29         23.1440     4.7880    42.9980 hc         1 EN3       0.067200
     70 H30         22.9500     6.1310    44.1170 hc         1 EN3       0.067200
     71 H31         27.6280     6.1700    44.0890 h1         1 EN3       0.037700
     72 H32         27.8570     5.1370    42.6710 h1         1 EN3       0.037700
     73 H33         27.3310     3.1350    44.1260 hc         1 EN3       0.061200
     74 H34         27.0050     4.2320    45.4680 hc         1 EN3       0.061200
     75 H35         25.4120     4.0430    42.8330 ha         1 EN3       0.122000
     76 H36         24.7710     5.1540    45.6020 ha         1 EN3       0.119000
     77 H2          33.5720     5.9040    44.4050 ha         1 EN3       0.135000
@<TRIPOS>BOND
     1     1    16 ar  
     2     1    17 ar  
     3     1    18 1   
     4     2    19 1   
     5     2    20 2   
     6     2    32 1   
     7     3    21 ar  
     8     3    22 ar  
     9     3    44 1   
    10     4     5 ar  
    11     4    23 ar  
    12     4    77 1   
    13     5    21 ar  
    14     5    45 1   
    15     6    25 1   
    16     6    26 2   
    17     6    28 1   
    18     7    28 1   
    19     7    29 1   
    20     7    46 1   
    21     7    47 1   
    22     8     9 1   
    23     8    25 1   
    24     8    27 2   
    25     9    10 1   
    26     9    48 1   
    27    10    11 1   
    28    10    12 2   
    29    11    13 1   
    30    11    49 1   
    31    11    50 1   
    32    13    14 ar  
    33    13    17 ar  
    34    14    15 ar  
    35    14    51 1   
    36    15    16 ar  
    37    15    52 1   
    38    16    53 1   
    39    17    54 1   
    40    18    38 1   
    41    19    21 1   
    42    19    55 1   
    43    19    56 1   
    44    22    23 ar  
    45    22    24 1   
    46    23    57 1   
    47    24    40 1   
    48    26    27 1   
    49    28    58 1   
    50    28    59 1   
    51    29    30 1   
    52    29    60 1   
    53    29    61 1   
    54    30    35 1   
    55    30    62 1   
    56    30    63 1   
    57    31    32 1   
    58    31    33 ar  
    59    31    37 ar  
    60    32    64 1   
    61    33    34 ar  
    62    34    35 ar  
    63    35    36 ar  
    64    36    37 ar  
    65    36    65 1   
    66    37    66 1   
    67    38    39 1   
    68    38    67 1   
    69    38    68 1   
    70    39    43 1   
    71    39    69 1   
    72    39    70 1   
    73    40    41 1   
    74    40    71 1   
    75    40    72 1   
    76    41    42 1   
    77    41    73 1   
    78    41    74 1   
    79    42    43 2   
    80    42    75 1   
    81    43    76 1   
@<TRIPOS>SUBSTRUCTURE
     1 EN3         1 TEMP              0 ****  ****    0 ROOT
