@<TRIPOS>MOLECULE
EN3
   77    81     1     0     0
SMALL
No Charge or Current Charge


@<TRIPOS>ATOM
      1 C10         20.0870     5.7010    44.7730 ca         1 EN3       0.144100
      2 C13         31.0750    10.1950    42.5060 c          1 EN3       0.612100
      3 C17         30.3140     6.9780    42.9100 ca         1 EN3      -0.190000
      4 C20         32.7900     6.1630    43.9660 ca         1 EN3      -0.074000
      5 C21         32.7170     7.2910    43.1340 ca         1 EN3      -0.123000
      6 C24         23.6240    13.0080    44.0530 cc         1 EN3       0.372700
      7 C28         24.9420    15.1920    43.8400 c3         1 EN3      -0.067400
      8 C1          21.9680    11.6360    45.0640 cc         1 EN3       0.506300
      9 N2          21.1260    10.7640    45.7100 ns         1 EN3      -0.472400
     10 C3          21.4310     9.6210    46.4070 c          1 EN3       0.605100
     11 C4          20.2140     8.8660    46.9530 c3         1 EN3      -0.102100
     12 O5          22.5690     9.2030    46.5500 o          1 EN3      -0.558100
     13 C6          19.7400     7.8210    45.9480 ca         1 EN3      -0.049300
     14 C7          18.5430     8.0110    45.2310 ca         1 EN3      -0.136000
     15 C8          18.1150     7.0520    44.2980 ca         1 EN3      -0.075000
     16 C09         18.8870     5.9010    44.0720 ca         1 EN3      -0.135000
     17 C11         20.5050     6.6600    45.7230 ca         1 EN3      -0.171000
     18 O12         20.8050     4.5520    44.4990 os         1 EN3      -0.345100
     19 C14         31.4110     8.9340    41.7030 c3         1 EN3      -0.112100
     20 O15         31.8300    10.6460    43.3580 o          1 EN3      -0.563100
     21 C16         31.4810     7.7050    42.6020 ca         1 EN3      -0.040300
     22 C18         30.3850     5.8420    43.7470 ca         1 EN3       0.149100
     23 C19         31.6250     5.4410    44.2700 ca         1 EN3      -0.138000
     24 O22         29.2770     5.0940    44.0850 os         1 EN3      -0.351100
     25 S23         23.7100    11.5990    45.0640 ss         1 EN3      -0.188800
     26 N25         22.3960    13.4180    43.7660 nd         1 EN3      -0.308000
     27 N26         21.4360    12.6250    44.3650 nd         1 EN3      -0.392000
     28 C27         24.8720    13.6740    43.5330 c3         1 EN3      -0.105700
     29 C29         26.0990    15.9540    43.1460 c3         1 EN3      -0.071400
     30 C30         27.5180    15.6930    43.7180 c3         1 EN3      -0.118700
     31 C31         29.3120    11.9670    42.6970 ca         1 EN3       0.417900
     32 N32         29.8900    10.8060    42.1660 ns         1 EN3      -0.323900
     33 N33         28.6300    12.6960    41.7820 nb         1 EN3      -0.388000
     34 N34         28.0550    13.8680    42.1330 nb         1 EN3      -0.294000
     35 C35         28.1360    14.3310    43.4080 ca         1 EN3       0.263300
     36 C36         28.8300    13.6050    44.4000 ca         1 EN3      -0.102000
     37 C37         29.4380    12.3870    44.0350 ca         1 EN3      -0.126000
     38 C38         22.1490     4.3260    44.9710 c3         1 EN3       0.165600
     39 C39         23.1230     5.2320    44.1810 c3         1 EN3      -0.085200
     40 C40         27.9580     5.4130    43.6090 c3         1 EN3       0.166600
     41 C41         26.9880     4.3770    44.2080 c3         1 EN3      -0.046200
     42 C42         25.5510     4.6090    43.7840 c2         1 EN3      -0.220200
     43 C43         24.5650     5.0200    44.5960 c2         1 EN3      -0.210200
     44 H1          29.3660     7.3070    42.4950 ha         1 EN3       0.115000
     45 H3          33.6240     7.8470    42.9070 ha         1 EN3       0.117000
     46 H5          24.0020    15.6570    43.5160 hc         1 EN3       0.054200
     47 H6          25.0000    15.3430    44.9260 hc         1 EN3       0.054200
     48 H8          20.1400    10.9660    45.6330 hn         1 EN3       0.345500
     49 H9          20.4920     8.3720    47.8900 hc         1 EN3       0.072700
     50 H10         19.3980     9.5750    47.1380 hc         1 EN3       0.072700
     51 H11         17.9400     8.9020    45.3930 ha         1 EN3       0.113000
     52 H12         17.1880     7.2030    43.7490 ha         1 EN3       0.117000
     53 H13         18.5580     5.1610    43.3470 ha         1 EN3       0.129000
     54 H14         21.4210     6.5240    46.2880 ha         1 EN3       0.121000
     55 H15         30.6640     8.7820    40.9140 hc         1 EN3       0.070700
     56 H16         32.3830     9.0920    41.2210 hc         1 EN3       0.070700
     57 H17         31.6810     4.5680    44.9140 ha         1 EN3       0.128000
     58 H18         25.7480    13.1750    43.9630 hc         1 EN3       0.061200
     59 H19         24.9270    13.5220    42.4490 hc         1 EN3       0.061200
     60 H20         26.0800    15.7570    42.0670 hc         1 EN3       0.052200
     61 H21         25.8940    17.0270    43.2550 hc         1 EN3       0.052200
     62 H22         28.1880    16.4660    43.3220 hc         1 EN3       0.053200
     63 H23         27.4910    15.8550    44.8020 hc         1 EN3       0.053200
     64 H24         29.3800    10.3910    41.3990 hn         1 EN3       0.171000
     65 H25         28.9050    13.9830    45.4160 ha         1 EN3       0.134000
     66 H26         29.9850    11.7950    44.7620 ha         1 EN3       0.165000
     67 H27         22.2340     4.5070    46.0500 h1         1 EN3       0.054700
     68 H28         22.4300     3.2800    44.7930 h1         1 EN3       0.054700
     69 H29         22.9990     5.0290    43.1100 hc         1 EN3       0.067200
     70 H30         22.8560     6.2850    44.3280 hc         1 EN3       0.067200
     71 H31         27.6610     6.4190    43.9320 h1         1 EN3       0.037700
     72 H32         27.9170     5.3660    42.5130 h1         1 EN3       0.037700
     73 H33         27.3060     3.3720    43.9040 hc         1 EN3       0.061200
     74 H34         27.0720     4.4130    45.3020 hc         1 EN3       0.061200
     75 H35         25.3520     4.3970    42.7310 ha         1 EN3       0.172000
     76 H36         24.7680     5.2300    45.6490 ha         1 EN3       0.169000
     77 H2          33.7480     5.8480    44.3750 ha         1 EN3       0.117000
@<TRIPOS>BOND
     1     1    16 ar  
     2     1    17 ar  
     3     1    18 1   
     4     2    19 1   
     5     2    20 2   
     6     2    32 1   
     7     3    21 ar  
     8     3    22 ar  
     9     3    44 1   
    10     4     5 ar  
    11     4    23 ar  
    12     4    77 1   
    13     5    21 ar  
    14     5    45 1   
    15     6    25 1   
    16     6    26 2   
    17     6    28 1   
    18     7    28 1   
    19     7    29 1   
    20     7    46 1   
    21     7    47 1   
    22     8     9 1   
    23     8    25 1   
    24     8    27 2   
    25     9    10 1   
    26     9    48 1   
    27    10    11 1   
    28    10    12 2   
    29    11    13 1   
    30    11    49 1   
    31    11    50 1   
    32    13    14 ar  
    33    13    17 ar  
    34    14    15 ar  
    35    14    51 1   
    36    15    16 ar  
    37    15    52 1   
    38    16    53 1   
    39    17    54 1   
    40    18    38 1   
    41    19    21 1   
    42    19    55 1   
    43    19    56 1   
    44    22    23 ar  
    45    22    24 1   
    46    23    57 1   
    47    24    40 1   
    48    26    27 1   
    49    28    58 1   
    50    28    59 1   
    51    29    30 1   
    52    29    60 1   
    53    29    61 1   
    54    30    35 1   
    55    30    62 1   
    56    30    63 1   
    57    31    32 1   
    58    31    33 ar  
    59    31    37 ar  
    60    32    64 1   
    61    33    34 ar  
    62    34    35 ar  
    63    35    36 ar  
    64    36    37 ar  
    65    36    65 1   
    66    37    66 1   
    67    38    39 1   
    68    38    67 1   
    69    38    68 1   
    70    39    43 1   
    71    39    69 1   
    72    39    70 1   
    73    40    41 1   
    74    40    71 1   
    75    40    72 1   
    76    41    42 1   
    77    41    73 1   
    78    41    74 1   
    79    42    43 2   
    80    42    75 1   
    81    43    76 1   
@<TRIPOS>SUBSTRUCTURE
     1 EN3         1 TEMP              0 ****  ****    0 ROOT
