@<TRIPOS>MOLECULE
EN4
   22    22     1     0     0
SMALL
abcg2


@<TRIPOS>ATOM
      1 C02          2.4770     0.2460     0.0570 c          1 EN4       0.667000
      2 C03          0.9250     0.3770     0.0700 c          1 EN4       0.441100
      3 C06         -1.2550    -0.7780     0.0460 c5         1 EN4       0.126700
      4 C07         -1.9440    -0.0430     1.2260 c5         1 EN4      -0.087900
      5 C08         -2.9470     0.9200     0.5840 c5         1 EN4      -0.078900
      6 C09         -3.2610     0.2780    -0.7670 c5         1 EN4      -0.078900
      7 C10         -1.8970    -0.2160    -1.2360 c5         1 EN4      -0.087900
      8 N04          0.1970    -0.7460     0.0550 n          1 EN4      -0.263300
      9 O01          3.0990     1.3000     0.0980 o          1 EN4      -0.666000
     10 O05          0.7660    -2.0000    -0.0110 oh         1 EN4      -0.561100
     11 O11          0.4010     1.4880     0.1010 o          1 EN4      -0.643100
     12 O12          2.9570    -0.9210     0.0060 o          1 EN4      -0.666000
     13 H1          -1.5000    -1.8370     0.1170 h1         1 EN4       0.050700
     14 H2          -2.4660    -0.7780     1.8410 hc         1 EN4       0.047450
     15 H3          -1.2350     0.4670     1.8760 hc         1 EN4       0.047450
     16 H4          -3.8330     1.0780     1.2000 hc         1 EN4       0.031950
     17 H5          -2.4790     1.8930     0.4230 hc         1 EN4       0.031950
     18 H6          -3.9460    -0.5650    -0.6330 hc         1 EN4       0.031950
     19 H7          -3.7300     0.9650    -1.4720 hc         1 EN4       0.031950
     20 H8          -1.3150     0.6260    -1.6120 hc         1 EN4       0.047450
     21 H9          -1.9490    -0.9660    -2.0260 hc         1 EN4       0.047450
     22 H11          1.7610    -1.7830    -0.0140 ho         1 EN4       0.528000
@<TRIPOS>BOND
     1     1     2 1   
     2     1     9 1   
     3     1    12 1   
     4     2     8 1   
     5     2    11 2   
     6     3     4 1   
     7     3     7 1   
     8     3     8 1   
     9     3    13 1   
    10     4     5 1   
    11     4    14 1   
    12     4    15 1   
    13     5     6 1   
    14     5    16 1   
    15     5    17 1   
    16     6     7 1   
    17     6    18 1   
    18     6    19 1   
    19     7    20 1   
    20     7    21 1   
    21     8    10 1   
    22    10    22 1   
@<TRIPOS>SUBSTRUCTURE
     1 EN4         1 TEMP              0 ****  ****    0 ROOT
