@<TRIPOS>MOLECULE
EN4
   22    22     1     0     0
SMALL
No Charge or Current Charge


@<TRIPOS>ATOM
      1 C02          2.5630     0.3940     0.1970 c          1 EN4       0.667000
      2 C03          0.9440     0.4880     0.1230 c          1 EN4       0.441100
      3 C06         -1.2940    -0.8360     0.1430 c5         1 EN4       0.126700
      4 C07         -1.9430     0.0620     1.2520 c5         1 EN4      -0.087900
      5 C08         -2.9200     0.9820     0.4570 c5         1 EN4      -0.078900
      6 C09         -3.2600     0.1280    -0.7950 c5         1 EN4      -0.078900
      7 C10         -1.8420    -0.3270    -1.2220 c5         1 EN4      -0.087900
      8 N04          0.2050    -0.7480     0.1540 n          1 EN4      -0.263300
      9 O01          3.1170     0.6820     1.2580 o          1 EN4      -0.666000
     10 O05          0.9590    -1.9750     0.2550 oh         1 EN4      -0.561100
     11 O11          0.3840     1.5860     0.0330 o          1 EN4      -0.643100
     12 O12          3.1760     0.0950    -0.8280 o          1 EN4      -0.666000
     13 H1          -1.6110    -1.8760     0.2980 h1         1 EN4       0.050700
     14 H2          -2.4950    -0.5650     1.9620 hc         1 EN4       0.047450
     15 H3          -1.2260     0.6350     1.8480 hc         1 EN4       0.047450
     16 H4          -3.8120     1.2410     1.0390 hc         1 EN4       0.031950
     17 H5          -2.4380     1.9240     0.1720 hc         1 EN4       0.031950
     18 H6          -3.9060    -0.7230    -0.5470 hc         1 EN4       0.031950
     19 H7          -3.7640     0.7110    -1.5740 hc         1 EN4       0.031950
     20 H8          -1.2700     0.5090    -1.6400 hc         1 EN4       0.047450
     21 H9          -1.8640    -1.1170    -1.9810 hc         1 EN4       0.047450
     22 H11          1.1240    -2.2650    -0.6770 ho         1 EN4       0.528000
@<TRIPOS>BOND
     1     1     2 1   
     2     1     9 1   
     3     1    12 1   
     4     2     8 1   
     5     2    11 2   
     6     3     4 1   
     7     3     7 1   
     8     3     8 1   
     9     3    13 1   
    10     4     5 1   
    11     4    14 1   
    12     4    15 1   
    13     5     6 1   
    14     5    16 1   
    15     5    17 1   
    16     6     7 1   
    17     6    18 1   
    18     6    19 1   
    19     7    20 1   
    20     7    21 1   
    21     8    10 1   
    22    10    22 1   
@<TRIPOS>SUBSTRUCTURE
     1 EN4         1 TEMP              0 ****  ****    0 ROOT
