@<TRIPOS>MOLECULE
EN5
   89    89     1     0     0
SMALL
No Charge or Current Charge


@<TRIPOS>ATOM
      1 C           13.2360     1.1650     1.8200 c3         1 EN5       0.149800
      2 N           14.1710     2.2970     1.6950 n8         1 EN5      -0.996200
      3 O            2.8320    -2.4730    -3.1170 o          1 EN5      -0.617100
      4 C1          11.9560     1.3920     0.9890 c3         1 EN5      -0.078400
      5 N1           1.7200    -2.0790    -1.1710 ns         1 EN5      -0.495900
      6 C2          10.9550     0.2200     1.0970 c3         1 EN5      -0.074400
      7 N2          -1.7470    -0.6560    -1.2230 ns         1 EN5      -0.491900
      8 C3           9.6710     0.4410     0.2670 c3         1 EN5      -0.074400
      9 N3           0.1320     5.8300    -0.0850 n8         1 EN5      -0.996200
     10 C4           8.6720    -0.7320     0.3760 c3         1 EN5      -0.074400
     11 C5           7.3890    -0.5120    -0.4540 c3         1 EN5      -0.074400
     12 C6           6.3900    -1.6850    -0.3450 c3         1 EN5      -0.076400
     13 C7           5.1060    -1.4650    -1.1750 c3         1 EN5      -0.065400
     14 C8           4.1070    -2.6410    -1.0660 c3         1 EN5      -0.154400
     15 C9           2.8460    -2.3870    -1.8970 c          1 EN5       0.602100
     16 C10          0.3700    -1.8450    -1.7450 c3         1 EN5       0.038700
     17 C11         -0.2910    -3.1610    -2.2390 c3         1 EN5       0.142600
     18 C12         -0.5330    -1.0920    -0.7280 c          1 EN5       0.608100
     19 C13         -2.7690     0.0880    -0.4500 c3         1 EN5       0.030700
     20 C14         -2.6410     1.6220    -0.6690 c3         1 EN5      -0.085400
     21 C15         -1.2900     2.2290    -0.2190 c3         1 EN5      -0.075400
     22 C16         -1.2370     3.7650    -0.3750 c3         1 EN5      -0.079400
     23 C17          0.1130     4.3650     0.0720 c3         1 EN5       0.149800
     24 C18         -4.1940    -0.4180    -0.8220 c          1 EN5       0.587100
     25 C19         -6.6120    -0.3660    -0.1420 c3         1 EN5       0.103000
     26 C20         -7.5090     0.3940     0.8570 c3         1 EN5      -0.092400
     27 C21         -9.0410     0.1570     0.6850 c6         1 EN5      -0.056700
     28 C22         -9.8510     1.0840     1.6350 c6         1 EN5      -0.072400
     29 C23        -11.3780     0.8750     1.4750 c6         1 EN5      -0.073400
     30 C24        -11.7660    -0.6050     1.7020 c6         1 EN5      -0.074400
     31 C25        -10.9720    -1.5380     0.7570 c6         1 EN5      -0.073400
     32 C26         -9.4450    -1.3310     0.9120 c6         1 EN5      -0.072400
     33 H           13.7420     0.2520     1.4770 h1         1 EN5       0.025700
     34 HA          12.9730     1.0410     2.8800 h1         1 EN5       0.025700
     35 HN          13.7330     3.1370     2.0920 hn         1 EN5       0.391000
     36 HNA         14.9770     2.1340     2.3110 hn         1 EN5       0.391000
     37 H1          11.4660     2.3150     1.3240 hc         1 EN5       0.046200
     38 H1A         12.2300     1.5350    -0.0640 hc         1 EN5       0.046200
     39 HN1          1.8210    -2.0340    -0.1630 hn         1 EN5       0.343500
     40 HO1         -0.8300    -4.9170    -1.5370 ho         1 EN5       0.448000
     41 H2          11.4460    -0.7030     0.7640 hc         1 EN5       0.036200
     42 H2A         10.6830     0.0750     2.1500 hc         1 EN5       0.036200
     43 HN2         -1.9670    -0.9000    -2.1830 hn         1 EN5       0.333500
     44 H3           9.1810     1.3640     0.6010 hc         1 EN5       0.038700
     45 H3A          9.9440     0.5850    -0.7860 hc         1 EN5       0.038700
     46 HN3          1.0660     6.1810     0.1620 hn         1 EN5       0.391500
     47 HN3A         0.0450     6.0600    -1.0820 hn         1 EN5       0.391500
     48 H4           9.1630    -1.6550     0.0420 hc         1 EN5       0.036700
     49 H4A          8.4000    -0.8770     1.4290 hc         1 EN5       0.036700
     50 HN4         -4.9390     0.5710     0.8110 hn         1 EN5       0.317500
     51 H5           6.8980     0.4110    -0.1200 hc         1 EN5       0.040200
     52 H5A          7.6610    -0.3670    -1.5070 hc         1 EN5       0.040200
     53 H6           6.8810    -2.6080    -0.6780 hc         1 EN5       0.036200
     54 H6A          6.1180    -1.8290     0.7080 hc         1 EN5       0.036200
     55 H7           4.6150    -0.5420    -0.8420 hc         1 EN5       0.054200
     56 H7A          5.3790    -1.3190    -2.2280 hc         1 EN5       0.054200
     57 H8           4.5960    -3.5480    -1.4400 hc         1 EN5       0.059200
     58 H8A          3.8400    -2.7720    -0.0100 hc         1 EN5       0.059200
     59 H10          0.4780    -1.1770    -2.6090 h1         1 EN5       0.087700
     60 H11          0.3460    -3.6110    -3.0130 h1         1 EN5       0.038700
     61 H11A        -1.2560    -2.9300    -2.7100 h1         1 EN5       0.038700
     62 H13         -2.6360    -0.1270     0.6190 h1         1 EN5       0.089700
     63 H14         -2.7990     1.8450    -1.7320 hc         1 EN5       0.051200
     64 H14A        -3.4450     2.1280    -0.1210 hc         1 EN5       0.051200
     65 H15         -1.1090     1.9670     0.8310 hc         1 EN5       0.046700
     66 H15A        -0.4760     1.7880    -0.8060 hc         1 EN5       0.046700
     67 H16         -1.4200     4.0260    -1.4240 hc         1 EN5       0.045200
     68 H16A        -2.0440     4.2150     0.2160 hc         1 EN5       0.045200
     69 H17          0.9260     3.9350    -0.5290 h1         1 EN5       0.027700
     70 H17A         0.2940     4.1210     1.1280 h1         1 EN5       0.027700
     71 H19         -6.9200    -0.1230    -1.1680 h1         1 EN5       0.053700
     72 H19A        -6.7190    -1.4490     0.0040 h1         1 EN5       0.053700
     73 H20         -7.2050     0.1250     1.8760 hc         1 EN5       0.043700
     74 H20A        -7.3000     1.4660     0.7470 hc         1 EN5       0.043700
     75 H21         -9.2840     0.4300    -0.3520 hc         1 EN5       0.049700
     76 H22         -9.5630     0.8920     2.6790 hc         1 EN5       0.038950
     77 H22A        -9.6050     2.1350     1.4340 hc         1 EN5       0.038950
     78 H23        -11.9180     1.5150     2.1860 hc         1 EN5       0.039700
     79 H23A       -11.6910     1.1910     0.4700 hc         1 EN5       0.039700
     80 H24        -11.5720    -0.8830     2.7470 hc         1 EN5       0.039200
     81 H24A       -12.8440    -0.7380     1.5380 hc         1 EN5       0.039200
     82 H25        -11.2290    -2.5850     0.9660 hc         1 EN5       0.039700
     83 H25A       -11.2670    -1.3470    -0.2840 hc         1 EN5       0.039700
     84 H26         -8.9260    -1.9820     0.1970 hc         1 EN5       0.038950
     85 H26A        -9.1300    -1.6540     1.9140 hc         1 EN5       0.038950
     86 O1          -0.4750    -4.0830    -1.1530 oh         1 EN5      -0.656000
     87 O2          -0.1950    -0.8740     0.4310 o          1 EN5      -0.605100
     88 O3          -4.4200    -1.1310    -1.7940 o          1 EN5      -0.612100
     89 N4          -5.2030    -0.0130     0.0260 ns         1 EN5      -0.500900
@<TRIPOS>BOND
     1     1     2 1   
     2     1     4 1   
     3     1    33 1   
     4     1    34 1   
     5     2    35 1   
     6     2    36 1   
     7     3    15 2   
     8     4     6 1   
     9     4    37 1   
    10     4    38 1   
    11     5    15 1   
    12     5    16 1   
    13     5    39 1   
    14     6     8 1   
    15     6    41 1   
    16     6    42 1   
    17     7    18 1   
    18     7    19 1   
    19     7    43 1   
    20     8    10 1   
    21     8    44 1   
    22     8    45 1   
    23     9    23 1   
    24     9    46 1   
    25     9    47 1   
    26    10    11 1   
    27    10    48 1   
    28    10    49 1   
    29    11    12 1   
    30    11    51 1   
    31    11    52 1   
    32    12    13 1   
    33    12    53 1   
    34    12    54 1   
    35    13    14 1   
    36    13    55 1   
    37    13    56 1   
    38    14    15 1   
    39    14    57 1   
    40    14    58 1   
    41    16    17 1   
    42    16    18 1   
    43    16    59 1   
    44    17    60 1   
    45    17    61 1   
    46    17    86 1   
    47    18    87 2   
    48    19    20 1   
    49    19    24 1   
    50    19    62 1   
    51    20    21 1   
    52    20    63 1   
    53    20    64 1   
    54    21    22 1   
    55    21    65 1   
    56    21    66 1   
    57    22    23 1   
    58    22    67 1   
    59    22    68 1   
    60    23    69 1   
    61    23    70 1   
    62    24    88 2   
    63    24    89 1   
    64    25    26 1   
    65    25    71 1   
    66    25    72 1   
    67    25    89 1   
    68    26    27 1   
    69    26    73 1   
    70    26    74 1   
    71    27    28 1   
    72    27    32 1   
    73    27    75 1   
    74    28    29 1   
    75    28    76 1   
    76    28    77 1   
    77    29    30 1   
    78    29    78 1   
    79    29    79 1   
    80    30    31 1   
    81    30    80 1   
    82    30    81 1   
    83    31    32 1   
    84    31    82 1   
    85    31    83 1   
    86    32    84 1   
    87    32    85 1   
    88    40    86 1   
    89    50    89 1   
@<TRIPOS>SUBSTRUCTURE
     1 EN5         1 TEMP              0 ****  ****    0 ROOT
