@<TRIPOS>MOLECULE
EN5
   89    89     1     0     0
SMALL
bcc


@<TRIPOS>ATOM
      1 C           13.9190    -0.4600     1.3590 c3         1 EN5       0.149800
      2 N           15.1910    -0.3200     0.6640 n8         1 EN5      -0.885800
      3 O            2.8600    -1.0730    -2.1520 o          1 EN5      -0.617100
      4 C1          12.7580    -0.4570     0.3760 c3         1 EN5      -0.078400
      5 N1           1.4920    -0.8450    -0.3770 ns         1 EN5      -0.562900
      6 C2          11.4030    -0.5970     1.0570 c3         1 EN5      -0.074400
      7 N2          -1.8470     0.3470    -1.0330 ns         1 EN5      -0.558900
      8 C3          10.2390    -0.5970     0.0730 c3         1 EN5      -0.074400
      9 N3          -1.1850     7.0130    -0.6340 n8         1 EN5      -0.885800
     10 C4           8.8780    -0.7350     0.7430 c3         1 EN5      -0.074400
     11 C5           7.7240    -0.7280    -0.2510 c3         1 EN5      -0.074400
     12 C6           6.3560    -0.8760     0.4040 c3         1 EN5      -0.076400
     13 C7           5.2190    -0.8520    -0.6100 c3         1 EN5      -0.065400
     14 C8           3.8570    -1.0260     0.0420 c3         1 EN5      -0.154400
     15 C9           2.7050    -0.9820    -0.9410 c          1 EN5       0.669100
     16 C10          0.2740    -0.7880    -1.1390 c3         1 EN5       0.038700
     17 C11         -0.2550    -2.1720    -1.5130 c3         1 EN5       0.119400
     18 C12         -0.7780    -0.0370    -0.3220 c          1 EN5       0.675100
     19 C13         -3.0220     0.9600    -0.4690 c3         1 EN5       0.030700
     20 C14         -3.1490     2.4380    -0.8610 c3         1 EN5      -0.085400
     21 C15         -1.9830     3.2900    -0.3800 c3         1 EN5      -0.075400
     22 C16         -2.1550     4.7600    -0.7400 c3         1 EN5      -0.079400
     23 C17         -0.9860     5.6150    -0.2760 c3         1 EN5       0.149800
     24 C18         -4.2530     0.1950    -0.9510 c          1 EN5       0.654100
     25 C19         -6.5760    -0.3890    -0.4180 c3         1 EN5       0.103000
     26 C20         -7.6110     0.0140     0.6210 c3         1 EN5      -0.092400
     27 C21         -8.9730    -0.6480     0.4190 c6         1 EN5      -0.056700
     28 C22        -10.0180    -0.0050     1.3310 c6         1 EN5      -0.072400
     29 C23        -11.3930    -0.6450     1.1680 c6         1 EN5      -0.073400
     30 C24        -11.3370    -2.1500     1.4040 c6         1 EN5      -0.074400
     31 C25        -10.3030    -2.8060     0.4960 c6         1 EN5      -0.073400
     32 C26         -8.9290    -2.1590     0.6560 c6         1 EN5      -0.072400
     33 H           13.9260    -1.4110     1.8990 h1         1 EN5       0.025700
     34 HA          13.7450     0.3200     2.1150 h1         1 EN5       0.025700
     35 HN          15.2450     0.6060     0.2560 hn         1 EN5       0.335800
     36 HNA         15.9490    -0.3640     1.3330 hn         1 EN5       0.335800
     37 H1          12.7770     0.4740    -0.2020 hc         1 EN5       0.046200
     38 H1A         12.8970    -1.2700    -0.3440 hc         1 EN5       0.046200
     39 HN1          1.4140    -0.7680     0.6260 hn         1 EN5       0.343500
     40 HO1         -0.9670    -3.7010    -0.5640 ho         1 EN5       0.409000
     41 H2          11.3820    -1.5240     1.6430 hc         1 EN5       0.036200
     42 H2A         11.2690     0.2180     1.7760 hc         1 EN5       0.036200
     43 HN2         -1.8780     0.1410    -2.0210 hn         1 EN5       0.333500
     44 H3          10.2630     0.3290    -0.5140 hc         1 EN5       0.038700
     45 H3A         10.3730    -1.4130    -0.6450 hc         1 EN5       0.038700
     46 HN3         -0.4150     7.5650    -0.2790 hn         1 EN5       0.336300
     47 HN3A        -1.1410     7.1060    -1.6410 hn         1 EN5       0.336300
     48 H4           8.8510    -1.6620     1.3270 hc         1 EN5       0.036700
     49 H4A          8.7430     0.0800     1.4630 hc         1 EN5       0.036700
     50 HN4         -5.1920     0.6820     0.7740 hn         1 EN5       0.317500
     51 H5           7.7500     0.2020    -0.8300 hc         1 EN5       0.040200
     52 H5A          7.8660    -1.5380    -0.9750 hc         1 EN5       0.040200
     53 H6           6.3230    -1.8120     0.9710 hc         1 EN5       0.036200
     54 H6A          6.2130    -0.0720     1.1340 hc         1 EN5       0.036200
     55 H7           5.2470     0.0920    -1.1620 hc         1 EN5       0.054200
     56 H7A          5.3760    -1.6430    -1.3470 hc         1 EN5       0.054200
     57 H8           3.8140    -1.9860     0.5680 hc         1 EN5       0.059200
     58 H8A          3.7020    -0.2620     0.8100 hc         1 EN5       0.059200
     59 H10          0.4600    -0.2450    -2.0700 h1         1 EN5       0.087700
     60 H11          0.5320    -2.7100    -2.0530 h1         1 EN5       0.038700
     61 H11A        -1.0940    -2.0560    -2.2100 h1         1 EN5       0.038700
     62 H13         -2.9450     0.8880     0.6180 h1         1 EN5       0.089700
     63 H14         -3.2420     2.5140    -1.9490 hc         1 EN5       0.051200
     64 H14A        -4.0810     2.8260    -0.4410 hc         1 EN5       0.051200
     65 H15         -1.8790     3.1880     0.7050 hc         1 EN5       0.046700
     66 H15A        -1.0510     2.9190    -0.8150 hc         1 EN5       0.046700
     67 H16         -2.2670     4.8570    -1.8260 hc         1 EN5       0.045200
     68 H16A        -3.0780     5.1480    -0.2980 hc         1 EN5       0.045200
     69 H17         -0.0540     5.1890    -0.6760 h1         1 EN5       0.027700
     70 H17A        -0.9070     5.5480     0.8130 h1         1 EN5       0.027700
     71 H19         -6.9150    -0.0880    -1.4120 h1         1 EN5       0.053700
     72 H19A        -6.4480    -1.4740    -0.4410 h1         1 EN5       0.053700
     73 H20         -7.2400    -0.2310     1.6230 hc         1 EN5       0.043700
     74 H20A        -7.7310     1.1010     0.5900 hc         1 EN5       0.043700
     75 H21         -9.2910    -0.4760    -0.6200 hc         1 EN5       0.049700
     76 H22         -9.6920    -0.1020     2.3740 hc         1 EN5       0.038950
     77 H22A       -10.0770     1.0670     1.1240 hc         1 EN5       0.038950
     78 H23        -12.1090    -0.1790     1.8500 hc         1 EN5       0.039700
     79 H23A       -11.7610    -0.4510     0.1540 hc         1 EN5       0.039700
     80 H24        -11.0710    -2.3410     2.4490 hc         1 EN5       0.039200
     81 H24A       -12.3210    -2.5970     1.2450 hc         1 EN5       0.039200
     82 H25        -10.2350    -3.8760     0.7100 hc         1 EN5       0.039700
     83 H25A       -10.6260    -2.7200    -0.5470 hc         1 EN5       0.039700
     84 H26         -8.2180    -2.6380    -0.0220 hc         1 EN5       0.038950
     85 H26A        -8.5590    -2.3450     1.6720 hc         1 EN5       0.038950
     86 O1          -0.6350    -2.8290    -0.3320 oh         1 EN5      -0.593800
     87 O2          -0.6410     0.1690     0.8730 o          1 EN5      -0.605100
     88 O3          -4.2690    -0.3740    -2.0340 o          1 EN5      -0.612100
     89 N4          -5.3040     0.2450    -0.1270 ns         1 EN5      -0.567900
@<TRIPOS>BOND
     1     1     2 1   
     2     1     4 1   
     3     1    33 1   
     4     1    34 1   
     5     2    35 1   
     6     2    36 1   
     7     3    15 2   
     8     4     6 1   
     9     4    37 1   
    10     4    38 1   
    11     5    15 1   
    12     5    16 1   
    13     5    39 1   
    14     6     8 1   
    15     6    41 1   
    16     6    42 1   
    17     7    18 1   
    18     7    19 1   
    19     7    43 1   
    20     8    10 1   
    21     8    44 1   
    22     8    45 1   
    23     9    23 1   
    24     9    46 1   
    25     9    47 1   
    26    10    11 1   
    27    10    48 1   
    28    10    49 1   
    29    11    12 1   
    30    11    51 1   
    31    11    52 1   
    32    12    13 1   
    33    12    53 1   
    34    12    54 1   
    35    13    14 1   
    36    13    55 1   
    37    13    56 1   
    38    14    15 1   
    39    14    57 1   
    40    14    58 1   
    41    16    17 1   
    42    16    18 1   
    43    16    59 1   
    44    17    60 1   
    45    17    61 1   
    46    17    86 1   
    47    18    87 2   
    48    19    20 1   
    49    19    24 1   
    50    19    62 1   
    51    20    21 1   
    52    20    63 1   
    53    20    64 1   
    54    21    22 1   
    55    21    65 1   
    56    21    66 1   
    57    22    23 1   
    58    22    67 1   
    59    22    68 1   
    60    23    69 1   
    61    23    70 1   
    62    24    88 2   
    63    24    89 1   
    64    25    26 1   
    65    25    71 1   
    66    25    72 1   
    67    25    89 1   
    68    26    27 1   
    69    26    73 1   
    70    26    74 1   
    71    27    28 1   
    72    27    32 1   
    73    27    75 1   
    74    28    29 1   
    75    28    76 1   
    76    28    77 1   
    77    29    30 1   
    78    29    78 1   
    79    29    79 1   
    80    30    31 1   
    81    30    80 1   
    82    30    81 1   
    83    31    32 1   
    84    31    82 1   
    85    31    83 1   
    86    32    84 1   
    87    32    85 1   
    88    40    86 1   
    89    50    89 1   
@<TRIPOS>SUBSTRUCTURE
     1 EN5         1 TEMP              0 ****  ****    0 ROOT
