@<TRIPOS>MOLECULE
EN6
   56    59     1     0     0
SMALL
No Charge or Current Charge


@<TRIPOS>ATOM
      1 N1          -2.4170    -1.8640     0.7820 na         1 EN6       0.233000
      2 N3          -3.8380     1.8990    -0.5360 ns         1 EN6      -0.497900
      3 C4           0.0290    -5.0290    -0.5940 ca         1 EN6      -0.068000
      4 C5           0.5930    -3.8420    -0.1020 ca         1 EN6      -0.066800
      5 C6          -0.2060    -2.8110     0.3550 ca         1 EN6      -0.162000
      6 C7           2.0020    -3.5440    -0.0170 cc         1 EN6      -0.178200
      7 C8           2.2290    -2.2820     0.5090 cd         1 EN6      -0.064600
      8 C10          3.7620    -0.4010    -0.1730 ca         1 EN6      -0.091300
      9 C13          4.1040     1.8420    -1.8430 ca         1 EN6      -0.057000
     10 C15          3.4830     0.8930     0.3100 ca         1 EN6      -0.056000
     11 C17         -2.6470    -0.7010     0.0550 cc         1 EN6      -0.095300
     12 C20         -4.3500    -0.4170     3.3520 c3         1 EN6      -0.124400
     13 C21         -2.0650    -0.4130    -1.3140 c3         1 EN6       0.221900
     14 C22         -4.0010     1.3910     0.7260 c          1 EN6       0.649700
     15 C24         -3.2620     4.3510    -0.4420 c3         1 EN6       0.131600
     16 C1          -1.6110    -2.9140     0.3380 ca         1 EN6       0.035800
     17 C2          -2.1900    -4.1040    -0.1510 ca         1 EN6      -0.104000
     18 C3          -1.3730    -5.1580    -0.6140 ca         1 EN6      -0.112000
     19 S1           0.7260    -1.4100     0.9340 ss         1 EN6       0.145400
     20 C11          4.2070    -0.5660    -1.4970 ca         1 EN6      -0.069000
     21 C12          4.3810     0.5530    -2.3270 ca         1 EN6      -0.117000
     22 C14          3.6430     2.0240    -0.5200 ca         1 EN6      -0.194300
     23 C16          3.3380     3.4250     0.0230 c3         1 EN6       0.356300
     24 F1           2.2680     3.4260     0.8520 f          1 EN6      -0.113667
     25 F2           4.3830     3.9160     0.7260 f          1 EN6      -0.113667
     26 F3           3.0670     4.3170    -0.9570 f          1 EN6      -0.113667
     27 C18         -3.4340     0.0300     0.9310 cd         1 EN6      -0.250600
     28 C19         -3.5870    -0.7630     2.1020 cd         1 EN6       0.313300
     29 N2          -2.9730    -1.9270     2.0310 nc         1 EN6      -0.517800
     30 O1          -3.1020    -0.2930    -2.2930 oh         1 EN6      -0.646000
     31 O2          -4.5830     2.0220     1.5960 o          1 EN6      -0.603100
     32 C23         -4.2230     3.2510    -0.9600 c3         1 EN6       0.104000
     33 O3          -1.9290     4.1420    -0.9390 oh         1 EN6      -0.669000
     34 H1          -3.4250     1.2740    -1.2190 hn         1 EN6       0.318500
     35 H2           0.6630    -5.8360    -0.9530 ha         1 EN6       0.120000
     36 H3           2.7990    -4.2120    -0.3360 ha         1 EN6       0.203000
     37 H4           4.2500     2.6960    -2.5020 ha         1 EN6       0.132000
     38 H5           3.1370     1.0180     1.3340 ha         1 EN6       0.129000
     39 H6          -5.3980    -0.1960     3.1200 hc         1 EN6       0.056367
     40 H7          -4.3380    -1.2390     4.0770 hc         1 EN6       0.056367
     41 H8          -3.9170     0.4630     3.8410 hc         1 EN6       0.056367
     42 H9          -1.4780     0.5150    -1.2630 h1         1 EN6       0.038200
     43 H10         -1.3720    -1.2130    -1.6030 h1         1 EN6       0.038200
     44 H11         -3.6400     5.3290    -0.7680 h1         1 EN6       0.032700
     45 H12         -3.2660     4.3450     0.6570 h1         1 EN6       0.032700
     46 H13         -3.2730    -4.2090    -0.1730 ha         1 EN6       0.140000
     47 H14         -1.8280    -6.0720    -0.9910 ha         1 EN6       0.120000
     48 H15          3.6580    -1.3280     1.7760 hc         1 EN6       0.065200
     49 H16          4.3690    -2.3390     0.5470 hc         1 EN6       0.065200
     50 H17          4.4180    -1.5610    -1.8830 ha         1 EN6       0.121000
     51 H18          4.7310     0.4210    -3.3480 ha         1 EN6       0.122000
     52 H19         -2.6700    -0.3390    -3.1740 ho         1 EN6       0.447000
     53 H20         -4.2480     3.2810    -2.0570 h1         1 EN6       0.061200
     54 H21         -5.2380     3.4610    -0.5990 h1         1 EN6       0.061200
     55 H22         -1.3670     4.8580    -0.5670 ho         1 EN6       0.446000
     56 C9           3.5630    -1.6170     0.7220 c3         1 EN6       0.031100
@<TRIPOS>BOND
     1     1    11 1   
     2     1    16 1   
     3     1    29 1   
     4     2    14 1   
     5     2    32 1   
     6     2    34 1   
     7     3     4 ar  
     8     3    18 ar  
     9     3    35 1   
    10     4     5 ar  
    11     4     6 1   
    12     5    16 ar  
    13     5    19 1   
    14     6     7 2   
    15     6    36 1   
    16     7    19 1   
    17     7    56 1   
    18     8    10 ar  
    19     8    20 ar  
    20     8    56 1   
    21     9    21 ar  
    22     9    22 ar  
    23     9    37 1   
    24    10    22 ar  
    25    10    38 1   
    26    11    13 1   
    27    11    27 2   
    28    12    28 1   
    29    12    39 1   
    30    12    40 1   
    31    12    41 1   
    32    13    30 1   
    33    13    42 1   
    34    13    43 1   
    35    14    27 1   
    36    14    31 2   
    37    15    32 1   
    38    15    33 1   
    39    15    44 1   
    40    15    45 1   
    41    16    17 ar  
    42    17    18 ar  
    43    17    46 1   
    44    18    47 1   
    45    20    21 ar  
    46    20    50 1   
    47    21    51 1   
    48    22    23 1   
    49    23    24 1   
    50    23    25 1   
    51    23    26 1   
    52    27    28 1   
    53    28    29 2   
    54    30    52 1   
    55    32    53 1   
    56    32    54 1   
    57    33    55 1   
    58    48    56 1   
    59    49    56 1   
@<TRIPOS>SUBSTRUCTURE
     1 EN6         1 TEMP              0 ****  ****    0 ROOT
