@<TRIPOS>MOLECULE
EN6
   56    59     1     0     0
SMALL
bcc


@<TRIPOS>ATOM
      1 N1          -2.0510    -1.4640     0.3290 na         1 EN6       0.182300
      2 N3          -4.3590     1.9590    -0.9030 ns         1 EN6      -0.564900
      3 C4           0.0590    -4.8960    -0.9160 ca         1 EN6      -0.086000
      4 C5           0.7410    -3.8310    -0.3180 ca         1 EN6      -0.066800
      5 C6           0.0200    -2.7040     0.1110 ca         1 EN6      -0.035100
      6 C7           2.1470    -3.6820    -0.0800 cc         1 EN6      -0.128200
      7 C8           2.4640    -2.5030     0.5010 cd         1 EN6      -0.064600
      8 C10          4.1390    -0.6750     0.2720 ca         1 EN6      -0.091300
      9 C13          4.6860     1.7960    -0.9160 ca         1 EN6      -0.075000
     10 C15          4.2020     0.4760     1.0420 ca         1 EN6      -0.074000
     11 C17         -2.9690    -0.7360    -0.3530 cc         1 EN6      -0.044600
     12 C20         -2.5020     0.9550     2.8840 c3         1 EN6      -0.124400
     13 C21         -3.4940    -1.1150    -1.6970 c3         1 EN6       0.198700
     14 C22         -4.3310     1.3650     0.3020 c          1 EN6       0.716700
     15 C24         -4.8480     4.3890    -0.8190 c3         1 EN6       0.108400
     16 C1          -1.3610    -2.6260    -0.0740 ca         1 EN6       0.035800
     17 C2          -2.0230    -3.6970    -0.6470 ca         1 EN6      -0.122000
     18 C3          -1.3090    -4.8220    -1.0700 ca         1 EN6      -0.130000
     19 S1           1.0640    -1.5110     0.8070 ss         1 EN6       0.018500
     20 C11          4.3520    -0.5800    -1.1020 ca         1 EN6      -0.087000
     21 C12          4.6240     0.6420    -1.6900 ca         1 EN6      -0.135000
     22 C14          4.4730     1.7080     0.4500 ca         1 EN6      -0.194300
     23 C16          4.5330     2.9180     1.3280 c3         1 EN6       0.720200
     24 F1           3.3860     3.1010     1.9990 f          1 EN6      -0.234967
     25 F2           5.4980     2.8120     2.2540 f          1 EN6      -0.234967
     26 F3           4.7690     4.0420     0.6450 f          1 EN6      -0.234967
     27 C18         -3.3140     0.3050     0.4850 cd         1 EN6      -0.315900
     28 C19         -2.5380     0.1200     1.6530 cd         1 EN6       0.378600
     29 N2          -1.7730    -0.9410     1.5290 nc         1 EN6      -0.517800
     30 O1          -4.6380    -1.9200    -1.5080 oh         1 EN6      -0.583800
     31 O2          -5.0930     1.6630     1.2130 o          1 EN6      -0.603100
     32 C23         -5.2980     3.0050    -1.2430 c3         1 EN6       0.104000
     33 O3          -3.6480     4.6970    -1.4910 oh         1 EN6      -0.606800
     34 H1          -3.5920     1.8040    -1.5350 hn         1 EN6       0.318500
     35 H2           0.6050    -5.7670    -1.2560 ha         1 EN6       0.138000
     36 H3           2.8810    -4.4340    -0.3350 ha         1 EN6       0.153000
     37 H4           4.9000     2.7430    -1.3920 ha         1 EN6       0.150000
     38 H5           4.0380     0.4010     2.1110 ha         1 EN6       0.147000
     39 H6          -3.4470     0.9050     3.4240 hc         1 EN6       0.056367
     40 H7          -1.7100     0.6160     3.5490 hc         1 EN6       0.056367
     41 H8          -2.3230     2.0030     2.6450 hc         1 EN6       0.056367
     42 H9          -3.7380    -0.2060    -2.2520 h1         1 EN6       0.038200
     43 H10         -2.7130    -1.6290    -2.2670 h1         1 EN6       0.038200
     44 H11         -5.6500     5.0970    -1.0680 h1         1 EN6       0.032700
     45 H12         -4.7230     4.4150     0.2700 h1         1 EN6       0.032700
     46 H13         -3.0970    -3.6620    -0.7690 ha         1 EN6       0.158000
     47 H14         -1.8460    -5.6450    -1.5220 ha         1 EN6       0.138000
     48 H15          3.8710    -1.9180     1.9920 hc         1 EN6       0.065200
     49 H16          4.5550    -2.7530     0.6120 hc         1 EN6       0.065200
     50 H17          4.3030    -1.4720    -1.7160 ha         1 EN6       0.139000
     51 H18          4.7890     0.7050    -2.7560 ha         1 EN6       0.140000
     52 H19         -4.9430    -2.2050    -2.3760 ho         1 EN6       0.408000
     53 H20         -5.4480     2.9780    -2.3230 h1         1 EN6       0.061200
     54 H21         -6.2610     2.7870    -0.7820 h1         1 EN6       0.061200
     55 H22         -3.3210     5.5360    -1.1530 ho         1 EN6       0.407000
     56 C9           3.8150    -2.0060     0.9030 c3         1 EN6       0.031100
@<TRIPOS>BOND
     1     1    11 1   
     2     1    16 1   
     3     1    29 1   
     4     2    14 1   
     5     2    32 1   
     6     2    34 1   
     7     3     4 ar  
     8     3    18 ar  
     9     3    35 1   
    10     4     5 ar  
    11     4     6 1   
    12     5    16 ar  
    13     5    19 1   
    14     6     7 2   
    15     6    36 1   
    16     7    19 1   
    17     7    56 1   
    18     8    10 ar  
    19     8    20 ar  
    20     8    56 1   
    21     9    21 ar  
    22     9    22 ar  
    23     9    37 1   
    24    10    22 ar  
    25    10    38 1   
    26    11    13 1   
    27    11    27 2   
    28    12    28 1   
    29    12    39 1   
    30    12    40 1   
    31    12    41 1   
    32    13    30 1   
    33    13    42 1   
    34    13    43 1   
    35    14    27 1   
    36    14    31 2   
    37    15    32 1   
    38    15    33 1   
    39    15    44 1   
    40    15    45 1   
    41    16    17 ar  
    42    17    18 ar  
    43    17    46 1   
    44    18    47 1   
    45    20    21 ar  
    46    20    50 1   
    47    21    51 1   
    48    22    23 1   
    49    23    24 1   
    50    23    25 1   
    51    23    26 1   
    52    27    28 1   
    53    28    29 2   
    54    30    52 1   
    55    32    53 1   
    56    32    54 1   
    57    33    55 1   
    58    48    56 1   
    59    49    56 1   
@<TRIPOS>SUBSTRUCTURE
     1 EN6         1 TEMP              0 ****  ****    0 ROOT
