@<TRIPOS>MOLECULE
EN8
   34    35     1     0     0
SMALL
bcc


@<TRIPOS>ATOM
      1 N1           4.5380    -0.3240    -0.7540 nv         1 EN8      -0.810200
      2 C4          -2.4980    -1.3010    -1.2140 c3         1 EN8      -0.104100
      3 C5          -1.2190    -2.9530     0.8000 c3         1 EN8       0.129700
      4 C6           0.8700    -0.3030    -0.3920 ca         1 EN8       0.120100
      5 C7           2.1420    -0.6370    -0.8300 ca         1 EN8      -0.196000
      6 C8           3.2710    -0.0350    -0.2710 ca         1 EN8       0.142600
      7 C10          1.8100     1.2340     1.1790 ca         1 EN8      -0.089000
      8 C1          -2.8920     0.8830     0.9540 c3         1 EN8      -0.104100
      9 C2          -1.6030     0.6540     0.1860 c6         1 EN8       0.339600
     10 C3          -1.4130    -0.8200    -0.2670 c6         1 EN8       0.339600
     11 O1          -1.3260    -1.5470     0.9120 os         1 EN8      -0.416600
     12 O2          -0.1920    -0.9090    -0.9810 os         1 EN8      -0.328900
     13 C9           3.0860     0.9010     0.7510 ca         1 EN8      -0.196000
     14 C11          0.6940     0.6370     0.6190 ca         1 EN8       0.033100
     15 O3          -0.5480     0.9770     1.0680 os         1 EN8      -0.324900
     16 O4          -1.4990     1.4000    -0.9830 os         1 EN8      -0.418600
     17 C12         -1.6970     2.7960    -0.8740 c3         1 EN8       0.130700
     18 H13          4.6280    -1.2300    -1.1870 hn         1 EN8       0.383800
     19 H14          5.2840    -0.1710    -0.0940 hn         1 EN8       0.383800
     20 H4          -2.6250    -0.6100    -2.0430 hc         1 EN8       0.058700
     21 H5          -2.2500    -2.2780    -1.6300 hc         1 EN8       0.058700
     22 H6          -3.4500    -1.3910    -0.6920 hc         1 EN8       0.058700
     23 H8          -0.9910    -3.3280     1.7960 h1         1 EN8       0.036700
     24 H7          -2.1510    -3.4160     0.4660 h1         1 EN8       0.036700
     25 H9          -0.4140    -3.2600     0.1280 h1         1 EN8       0.036700
     26 H10          2.2480    -1.3740    -1.6180 ha         1 EN8       0.142000
     27 H12          1.6800     1.9660     1.9660 ha         1 EN8       0.140000
     28 H2          -2.8990     1.8700     1.4180 hc         1 EN8       0.058033
     29 H3          -3.7540     0.8200     0.2920 hc         1 EN8       0.058033
     30 H1          -3.0110     0.1440     1.7420 hc         1 EN8       0.058033
     31 H11          3.9430     1.3830     1.2060 ha         1 EN8       0.132000
     32 H17         -1.4430     3.2240    -1.8410 h1         1 EN8       0.036700
     33 H16         -2.7360     3.0510    -0.6480 h1         1 EN8       0.036700
     34 H15         -1.0540     3.2510    -0.1170 h1         1 EN8       0.036700
@<TRIPOS>BOND
     1     1     6 1   
     2     1    18 1   
     3     1    19 1   
     4     2    10 1   
     5     2    20 1   
     6     2    21 1   
     7     2    22 1   
     8     3    11 1   
     9     3    23 1   
    10     3    24 1   
    11     3    25 1   
    12     4     5 ar  
    13     4    12 1   
    14     4    14 ar  
    15     5     6 ar  
    16     5    26 1   
    17     6    13 ar  
    18     7    13 ar  
    19     7    14 ar  
    20     7    27 1   
    21     8     9 1   
    22     8    28 1   
    23     8    29 1   
    24     8    30 1   
    25     9    10 1   
    26     9    15 1   
    27     9    16 1   
    28    10    11 1   
    29    10    12 1   
    30    13    31 1   
    31    14    15 1   
    32    16    17 1   
    33    17    32 1   
    34    17    33 1   
    35    17    34 1   
@<TRIPOS>SUBSTRUCTURE
     1 EN8         1 TEMP              0 ****  ****    0 ROOT
