@<TRIPOS>MOLECULE
EN8
   34    35     1     0     0
SMALL
No Charge or Current Charge


@<TRIPOS>ATOM
      1 N1           4.5960    -0.4620    -0.6010 nv         1 EN8      -1.059000
      2 C4          -2.5250    -1.3460    -1.2470 c3         1 EN8      -0.104100
      3 C5          -1.2570    -3.1120     0.7850 c3         1 EN8       0.152900
      4 C6           0.9270    -0.3510    -0.3650 ca         1 EN8       0.120100
      5 C7           2.2190    -0.7310    -0.7630 ca         1 EN8      -0.178000
      6 C8           3.3380    -0.0880    -0.2170 ca         1 EN8       0.281000
      7 C10          1.8800     1.3330     1.1240 ca         1 EN8      -0.071000
      8 C1          -2.9150     0.9320     0.9990 c3         1 EN8      -0.104100
      9 C2          -1.6280     0.6850     0.1520 c6         1 EN8       0.386000
     10 C3          -1.4370    -0.8440    -0.2490 c6         1 EN8       0.386000
     11 O1          -1.4760    -1.6930     0.9350 os         1 EN8      -0.463000
     12 O2          -0.1580    -1.0140    -0.9000 os         1 EN8      -0.352100
     13 C9           3.1710     0.9380     0.7260 ca         1 EN8      -0.178000
     14 C11          0.7550     0.6990     0.5730 ca         1 EN8       0.033100
     15 O3          -0.5050     1.1140     0.9560 os         1 EN8      -0.348100
     16 O4          -1.6960     1.5230    -1.0380 os         1 EN8      -0.465000
     17 C12         -1.8030     2.9530    -0.8820 c3         1 EN8       0.153900
     18 H13          4.7290    -1.2830    -1.1890 hn         1 EN8       0.439000
     19 H14          5.4110    -0.0840    -0.1210 hn         1 EN8       0.439000
     20 H4          -2.6650    -0.6410    -2.0730 hc         1 EN8       0.058700
     21 H5          -2.2520    -2.3070    -1.6960 hc         1 EN8       0.058700
     22 H6          -3.4940    -1.4670    -0.7490 hc         1 EN8       0.058700
     23 H8          -1.2230    -3.5930     1.7700 h1         1 EN8       0.036700
     24 H7          -2.0660    -3.5840     0.2140 h1         1 EN8       0.036700
     25 H9          -0.3040    -3.3150     0.2790 h1         1 EN8       0.036700
     26 H10          2.3430    -1.5300    -1.4880 ha         1 EN8       0.124000
     27 H12          1.7520     2.1340     1.8480 ha         1 EN8       0.122000
     28 H2          -2.9110     1.9230     1.4650 hc         1 EN8       0.058033
     29 H3          -3.8170     0.8510     0.3820 hc         1 EN8       0.058033
     30 H1          -3.0040     0.2020     1.8110 hc         1 EN8       0.058033
     31 H11          4.0380     1.4360     1.1510 ha         1 EN8       0.114000
     32 H17         -1.7490     3.4440    -1.8620 h1         1 EN8       0.036700
     33 H16         -2.7590     3.2360    -0.4230 h1         1 EN8       0.036700
     34 H15         -0.9860     3.3470    -0.2640 h1         1 EN8       0.036700
@<TRIPOS>BOND
     1     1     6 1   
     2     1    18 1   
     3     1    19 1   
     4     2    10 1   
     5     2    20 1   
     6     2    21 1   
     7     2    22 1   
     8     3    11 1   
     9     3    23 1   
    10     3    24 1   
    11     3    25 1   
    12     4     5 ar  
    13     4    12 1   
    14     4    14 ar  
    15     5     6 ar  
    16     5    26 1   
    17     6    13 ar  
    18     7    13 ar  
    19     7    14 ar  
    20     7    27 1   
    21     8     9 1   
    22     8    28 1   
    23     8    29 1   
    24     8    30 1   
    25     9    10 1   
    26     9    15 1   
    27     9    16 1   
    28    10    11 1   
    29    10    12 1   
    30    13    31 1   
    31    14    15 1   
    32    16    17 1   
    33    17    32 1   
    34    17    33 1   
    35    17    34 1   
@<TRIPOS>SUBSTRUCTURE
     1 EN8         1 TEMP              0 ****  ****    0 ROOT
