@<TRIPOS>MOLECULE
EN9
   51    53     1     0     0
SMALL
No Charge or Current Charge


@<TRIPOS>ATOM
      1 N12        167.1430   177.6310   149.1300 nt         1 EN9      -0.603000
      2 C15        165.2280   176.6020   147.9050 c3         1 EN9       0.140500
      3 C20        165.3140   178.5880   144.6360 ca         1 EN9      -0.111300
      4 C21        166.7110   174.3900   146.4110 ca         1 EN9      -0.302500
      5 C22        163.3400   174.2190   149.3020 c3         1 EN9       0.298000
      6 C24        166.3200   179.1760   143.8440 ca         1 EN9      -0.073000
      7 C26        165.6200   173.6980   145.8470 ca         1 EN9      -0.005000
      8 C28        166.1060   179.4100   142.4750 ca         1 EN9      -0.075000
      9 C16        163.6760   176.4740   147.9580 c3         1 EN9      -0.066400
     10 C18        163.0730   175.7420   149.1970 c3         1 EN9      -0.155400
     11 C19        165.7960   177.5570   149.0200 c          1 EN9       0.570100
     12 C23        164.0870   178.2510   144.0350 ca         1 EN9       0.187000
     13 C25        167.5150   173.7620   147.3870 ca         1 EN9      -0.005000
     14 C27        163.8700   178.4840   142.6680 ca         1 EN9      -0.115000
     15 C29        164.8770   179.0660   141.8610 ca         1 EN9      -0.108500
     16 C30        167.2200   172.4500   147.7950 ca         1 EN9      -0.124500
     17 C31        165.3340   172.3860   146.2580 ca         1 EN9      -0.124500
     18 C32        166.1310   171.7660   147.2330 ca         1 EN9       0.171000
     19 C33        164.6470   179.3080   140.4230 cc         1 EN9       0.609500
     20 C34        165.0350   179.9180   138.4650 cd         1 EN9       0.474900
     21 F03        163.0230   173.5840   148.1510 f          1 EN9      -0.117667
     22 F04        162.5890   173.6800   150.2880 f          1 EN9      -0.117667
     23 F05        164.6340   173.9550   149.5880 f          1 EN9      -0.117667
     24 F06        163.0910   177.7060   144.7710 f          1 EN9      -0.176000
     25 N11        165.6560   176.9080   146.4950 n3         1 EN9      -0.721500
     26 N13        165.6180   179.8750   139.6490 nc         1 EN9      -0.712000
     27 N14        163.5170   179.0010   139.8090 nd         1 EN9      -0.369300
     28 O07        168.1970   176.6120   146.6270 o          1 EN9      -0.526000
     29 O08        166.9440   176.1040   144.4420 o          1 EN9      -0.526000
     30 O09        165.1070   178.2370   149.7650 o          1 EN9      -0.599100
     31 O10        163.7690   179.4100   138.4820 os         1 EN9      -0.082700
     32 S02        167.0350   176.0870   145.9050 sy         1 EN9       1.159600
     33 Cl1        165.7600   170.1280   147.7560 cl         1 EN9      -0.184000
     34 H1         167.5480   178.2450   149.8210 hn         1 EN9       0.323500
     35 H2         167.7320   177.1440   148.4660 hn         1 EN9       0.323500
     36 H3         165.6140   175.6220   148.1940 h1         1 EN9       0.099700
     37 H4         166.4510   178.8820   146.4420 h1         1 EN9       0.070700
     38 H5         164.7120   178.8080   146.6550 h1         1 EN9       0.070700
     39 H6         167.2760   179.4480   144.2880 ha         1 EN9       0.114000
     40 H7         164.9880   174.1790   145.1010 ha         1 EN9       0.135500
     41 H8         166.9080   179.8610   141.8930 ha         1 EN9       0.141000
     42 H9         163.2370   177.4770   147.8960 hc         1 EN9       0.080200
     43 H10        163.3410   175.9520   147.0530 hc         1 EN9       0.080200
     44 H11        163.4110   176.2250   150.1220 hc         1 EN9       0.084700
     45 H12        161.9860   175.8850   149.1690 hc         1 EN9       0.084700
     46 H13        168.3600   174.2830   147.8350 ha         1 EN9       0.135500
     47 H14        162.9080   178.2080   142.2430 ha         1 EN9       0.150000
     48 H15        167.8340   171.9650   148.5490 ha         1 EN9       0.134500
     49 H16        164.4900   171.8530   145.8290 ha         1 EN9       0.134500
     50 H17        165.4350   180.2940   137.5300 h5         1 EN9       0.090100
     51 C17        165.5510   178.3400   146.1210 c3         1 EN9       0.255100
@<TRIPOS>BOND
     1     1    11 1   
     2     1    34 1   
     3     1    35 1   
     4     2     9 1   
     5     2    11 1   
     6     2    25 1   
     7     2    36 1   
     8     3     6 ar  
     9     3    12 ar  
    10     3    51 1   
    11     4     7 ar  
    12     4    13 ar  
    13     4    32 1   
    14     5    10 1   
    15     5    21 1   
    16     5    22 1   
    17     5    23 1   
    18     6     8 ar  
    19     6    39 1   
    20     7    17 ar  
    21     7    40 1   
    22     8    15 ar  
    23     8    41 1   
    24     9    10 1   
    25     9    42 1   
    26     9    43 1   
    27    10    44 1   
    28    10    45 1   
    29    11    30 2   
    30    12    14 ar  
    31    12    24 1   
    32    13    16 ar  
    33    13    46 1   
    34    14    15 ar  
    35    14    47 1   
    36    15    19 1   
    37    16    18 ar  
    38    16    48 1   
    39    17    18 ar  
    40    17    49 1   
    41    18    33 1   
    42    19    26 1   
    43    19    27 2   
    44    20    26 2   
    45    20    31 1   
    46    20    50 1   
    47    25    32 1   
    48    25    51 1   
    49    27    31 1   
    50    28    32 2   
    51    29    32 2   
    52    37    51 1   
    53    38    51 1   
@<TRIPOS>SUBSTRUCTURE
     1 EN9         1 TEMP              0 ****  ****    0 ROOT
