@<TRIPOS>MOLECULE
EN9
   51    53     1     0     0
SMALL
abcg2


@<TRIPOS>ATOM
      1 N12        165.0260   174.6160   149.4370 nt         1 EN9      -0.603000
      2 C15        164.1540   175.7190   147.4590 c3         1 EN9       0.140500
      3 C20        165.4370   177.9900   144.7250 ca         1 EN9      -0.111300
      4 C21        167.0150   174.3500   146.1550 ca         1 EN9      -0.302500
      5 C22        161.2310   175.2580   148.9090 c3         1 EN9       0.298000
      6 C24        166.5880   178.3800   144.0530 ca         1 EN9      -0.073000
      7 C26        167.0150   173.3420   147.1100 ca         1 EN9      -0.005000
      8 C28        166.5370   179.0250   142.8280 ca         1 EN9      -0.075000
      9 C16        162.9890   176.6860   147.7050 c3         1 EN9      -0.066400
     10 C18        162.1710   176.4310   148.9710 c3         1 EN9      -0.155400
     11 C19        165.1050   175.7040   148.6630 c          1 EN9       0.570100
     12 C23        164.2270   178.2880   144.1140 ca         1 EN9       0.187000
     13 C25        168.1860   175.0200   145.8230 ca         1 EN9      -0.005000
     14 C27        164.1350   178.9220   142.8960 ca         1 EN9      -0.115000
     15 C29        165.3070   179.2960   142.2400 ca         1 EN9      -0.108500
     16 C30        169.3650   174.6980   146.4730 ca         1 EN9      -0.124500
     17 C31        168.1930   173.0160   147.7590 ca         1 EN9      -0.124500
     18 C32        169.3560   173.7010   147.4380 ca         1 EN9       0.171000
     19 C33        165.2470   179.9710   140.9460 cc         1 EN9       0.609500
     20 C34        165.8470   180.8980   139.2000 cd         1 EN9       0.474900
     21 F03        160.3700   175.3460   147.8850 f          1 EN9      -0.117667
     22 F04        160.4980   175.1550   150.0260 f          1 EN9      -0.117667
     23 F05        161.8650   174.0770   148.7640 f          1 EN9      -0.117667
     24 F06        163.0860   177.9610   144.7380 f          1 EN9      -0.176000
     25 N11        164.8460   176.0560   146.2090 n3         1 EN9      -0.721500
     26 N13        166.3580   180.3610   140.2500 nc         1 EN9      -0.712000
     27 N14        164.1320   180.2620   140.3440 nd         1 EN9      -0.369300
     28 O07        165.8430   175.3090   144.0390 o          1 EN9      -0.526000
     29 O08        164.5850   173.6710   145.4710 o          1 EN9      -0.526000
     30 O09        165.8470   176.6440   148.8960 o          1 EN9      -0.599100
     31 O10        164.5260   180.8740   139.1900 os         1 EN9      -0.082700
     32 S02        165.5000   174.7930   145.3500 sy         1 EN9       1.159600
     33 CL1        170.8250   173.2960   148.2470 cl         1 EN9      -0.184000
     34 H1         165.5990   174.5360   150.2630 hn         1 EN9       0.323500
     35 H2         164.4250   173.8390   149.2220 hn         1 EN9       0.323500
     36 H3         163.7340   174.7270   147.3060 h1         1 EN9       0.099700
     37 H4         166.5840   177.2770   146.3670 h1         1 EN9       0.070700
     38 H5         165.0860   178.0150   146.8170 h1         1 EN9       0.070700
     39 H6         167.5520   178.1690   144.4990 ha         1 EN9       0.114000
     40 H7         166.1130   172.7980   147.3520 ha         1 EN9       0.135500
     41 H8         167.4550   179.3090   142.3330 ha         1 EN9       0.141000
     42 H9         163.3670   177.7050   147.7880 hc         1 EN9       0.080200
     43 H10        162.3440   176.6670   146.8280 hc         1 EN9       0.080200
     44 H11        162.8060   176.3170   149.8520 hc         1 EN9       0.084700
     45 H12        161.5580   177.3150   149.1550 hc         1 EN9       0.084700
     46 H13        168.2030   175.7780   145.0520 ha         1 EN9       0.135500
     47 H14        163.1610   179.1250   142.4710 ha         1 EN9       0.150000
     48 H15        170.2810   175.2150   146.2210 ha         1 EN9       0.134500
     49 H16        168.2020   172.2320   148.5030 ha         1 EN9       0.134500
     50 H17        166.3540   181.3500   138.3600 h5         1 EN9       0.090100
     51 C17        165.5310   177.3490   146.0820 c3         1 EN9       0.255100
@<TRIPOS>BOND
     1     1    11 1   
     2     1    34 1   
     3     1    35 1   
     4     2     9 1   
     5     2    11 1   
     6     2    25 1   
     7     2    36 1   
     8     3     6 ar  
     9     3    12 ar  
    10     3    51 1   
    11     4     7 ar  
    12     4    13 ar  
    13     4    32 1   
    14     5    10 1   
    15     5    21 1   
    16     5    22 1   
    17     5    23 1   
    18     6     8 ar  
    19     6    39 1   
    20     7    17 ar  
    21     7    40 1   
    22     8    15 ar  
    23     8    41 1   
    24     9    10 1   
    25     9    42 1   
    26     9    43 1   
    27    10    44 1   
    28    10    45 1   
    29    11    30 2   
    30    12    14 ar  
    31    12    24 1   
    32    13    16 ar  
    33    13    46 1   
    34    14    15 ar  
    35    14    47 1   
    36    15    19 1   
    37    16    18 ar  
    38    16    48 1   
    39    17    18 ar  
    40    17    49 1   
    41    18    33 1   
    42    19    26 1   
    43    19    27 2   
    44    20    26 2   
    45    20    31 1   
    46    20    50 1   
    47    25    32 1   
    48    25    51 1   
    49    27    31 1   
    50    28    32 2   
    51    29    32 2   
    52    37    51 1   
    53    38    51 1   
@<TRIPOS>SUBSTRUCTURE
     1 EN9         1 TEMP              0 ****  ****    0 ROOT
