@<TRIPOS>MOLECULE
ENB
   82    83     1     0     0
SMALL
abcg2


@<TRIPOS>ATOM
      1 C1           3.2600     1.4200     0.7050 c3         1 ENB       0.139900
      2 C2           3.8220     0.0960     0.2790 c2         1 ENB      -0.178200
      3 N1           1.9100     1.2240     1.2070 ns         1 ENB      -0.495900
      4 C3           0.8640     1.0050     0.3990 c          1 ENB       0.596100
      5 C4          -0.4250     0.6080     1.1280 c3         1 ENB       0.084000
      6 O1           0.9130     1.0890    -0.8160 o          1 ENB      -0.597100
      7 N2          -1.5040     0.6670     0.1810 ns         1 ENB      -0.497900
      8 C5          -0.2390    -0.7700     1.7310 ca         1 ENB      -0.111300
      9 C6          -0.1320    -1.8870     0.9070 ca         1 ENB      -0.089500
     10 C7           0.0760    -3.1430     1.4560 ca         1 ENB      -0.109000
     11 C8           0.1840    -3.2950     2.8340 ca         1 ENB      -0.099000
     12 C9           0.0790    -2.1840     3.6580 ca         1 ENB      -0.109000
     13 C10         -0.1350    -0.9260     3.1070 ca         1 ENB      -0.089500
     14 C11         -2.7900     0.5810     0.5530 c          1 ENB       0.592100
     15 C12         -3.7850     0.7210    -0.5950 c3         1 ENB       0.051700
     16 O2          -3.1370     0.4370     1.7140 o          1 ENB      -0.601100
     17 N3          -5.0760     0.2620    -0.1620 ns         1 ENB      -0.493900
     18 C13         -5.8370    -0.5870    -0.8860 c          1 ENB       0.655100
     19 O3          -6.9580    -0.8680    -0.2220 os         1 ENB      -0.474100
     20 O4          -5.5340    -1.0180    -1.9800 o          1 ENB      -0.557000
     21 C14         -8.0210    -1.6770    -0.7910 c3         1 ENB       0.225000
     22 C15          4.0980     2.0650     1.8100 c3         1 ENB      -0.062400
     23 C16          5.5600     2.2970     1.4520 c5         1 ENB      -0.154700
     24 C17          6.4090     2.7750     2.6310 c5         1 ENB      -0.092400
     25 C18          7.5360     3.5700     1.9710 c5         1 ENB       0.100000
     26 N4           6.9030     4.0440     0.7590 ns         1 ENB      -0.512900
     27 C19          5.8060     3.3630     0.3940 c          1 ENB       0.562000
     28 O5           5.1440     3.5590    -0.6140 o          1 ENB      -0.552000
     29 C20         -3.8100     2.1760    -1.1180 c3         1 ENB      -0.069700
     30 C21         -4.7110     2.2960    -2.3410 c3         1 ENB      -0.089100
     31 C22         -4.2190     3.1720    -0.0390 c3         1 ENB      -0.089100
     32 C23         -7.5540    -3.1050    -1.0420 c3         1 ENB      -0.108767
     33 C24         -9.0830    -1.6680     0.3020 c3         1 ENB      -0.108767
     34 C25         -8.5800    -1.0340    -2.0550 c3         1 ENB      -0.108767
     35 C26          4.2590    -0.1610    -0.9500 ce         1 ENB      -0.242200
     36 C27          4.7840    -1.4920    -1.3120 c          1 ENB       0.594300
     37 O6           5.1270    -1.5350    -2.5920 os         1 ENB      -0.441100
     38 O7           4.8900    -2.4290    -0.5560 o          1 ENB      -0.499000
     39 C28          5.6360    -2.7720    -3.1150 c3         1 ENB       0.167600
     40 C29          5.9410    -2.5620    -4.5780 c3         1 ENB      -0.097100
     41 H1           3.2150     2.0920    -0.1500 h1         1 ENB       0.110700
     42 H2           3.8510    -0.6800     1.0400 ha         1 ENB       0.189000
     43 HN1          1.7940     1.0790     2.1990 hn         1 ENB       0.317500
     44 H4          -0.6020     1.3260     1.9350 h1         1 ENB       0.078700
     45 HN2         -1.2560     0.7640    -0.7930 hn         1 ENB       0.346500
     46 H6          -0.2140    -1.7800    -0.1680 ha         1 ENB       0.116000
     47 H7           0.1580    -4.0050     0.8060 ha         1 ENB       0.115000
     48 H8           0.3470    -4.2760     3.2610 ha         1 ENB       0.114000
     49 H9           0.1530    -2.2940     4.7320 ha         1 ENB       0.115000
     50 H10         -0.2260    -0.0620     3.7550 ha         1 ENB       0.116000
     51 H12         -3.4570     0.0770    -1.4150 h1         1 ENB       0.092700
     52 HN3         -5.3790     0.5100     0.7670 hn         1 ENB       0.342500
     53 H151         3.6300     3.0110     2.0940 hc         1 ENB       0.051200
     54 H152         4.0700     1.4220     2.6960 hc         1 ENB       0.051200
     55 H16          5.9890     1.3680     1.0560 hc         1 ENB       0.083700
     56 H171         5.8170     3.4330     3.2720 hc         1 ENB       0.058700
     57 H172         6.7810     1.9560     3.2440 hc         1 ENB       0.058700
     58 H181         7.8820     4.4010     2.5850 h1         1 ENB       0.047200
     59 H182         8.3990     2.9370     1.7450 h1         1 ENB       0.047200
     60 HN4          7.3330     4.7260     0.1540 hn         1 ENB       0.330500
     61 H20         -2.7890     2.4150    -1.4350 hc         1 ENB       0.052700
     62 H211        -4.6530     3.3040    -2.7530 hc         1 ENB       0.039033
     63 H212        -4.4210     1.5970    -3.1270 hc         1 ENB       0.039033
     64 H213        -5.7560     2.1040    -2.0910 hc         1 ENB       0.039033
     65 H221        -3.5210     3.1940     0.8000 hc         1 ENB       0.039033
     66 H222        -4.2550     4.1810    -0.4530 hc         1 ENB       0.039033
     67 H223        -5.2120     2.9490     0.3550 hc         1 ENB       0.039033
     68 H231        -7.1180    -3.5400    -0.1410 hc         1 ENB       0.049033
     69 H232        -8.4140    -3.7170    -1.3200 hc         1 ENB       0.049033
     70 H233        -6.8270    -3.1710    -1.8480 hc         1 ENB       0.049033
     71 H241        -9.4150    -0.6540     0.5270 hc         1 ENB       0.049033
     72 H242        -9.9530    -2.2380    -0.0260 hc         1 ENB       0.049033
     73 H243        -8.7140    -2.1230     1.2220 hc         1 ENB       0.049033
     74 H251        -7.8730    -1.0520    -2.8810 hc         1 ENB       0.049033
     75 H252        -9.4730    -1.5790    -2.3640 hc         1 ENB       0.049033
     76 H253        -8.8730     0.0020    -1.8710 hc         1 ENB       0.049033
     77 H26          4.2350     0.6010    -1.7190 ha         1 ENB       0.215000
     78 H281         4.8910    -3.5590    -2.9810 h1         1 ENB       0.046700
     79 H282         6.5340    -3.0620    -2.5660 h1         1 ENB       0.046700
     80 H291         6.3170    -3.4920    -5.0020 hc         1 ENB       0.047033
     81 H292         5.0500    -2.2770    -5.1370 hc         1 ENB       0.047033
     82 H293         6.7040    -1.7970    -4.7240 hc         1 ENB       0.047033
@<TRIPOS>BOND
     1     1     2 1   
     2     1     3 1   
     3     1    22 1   
     4     1    41 1   
     5     2    35 2   
     6     2    42 1   
     7     3     4 1   
     8     3    43 1   
     9     4     5 1   
    10     4     6 2   
    11     5     7 1   
    12     5     8 1   
    13     5    44 1   
    14     7    14 1   
    15     7    45 1   
    16     8     9 ar  
    17     8    13 ar  
    18     9    10 ar  
    19     9    46 1   
    20    10    11 ar  
    21    10    47 1   
    22    11    12 ar  
    23    11    48 1   
    24    12    13 ar  
    25    12    49 1   
    26    13    50 1   
    27    14    15 1   
    28    14    16 2   
    29    15    17 1   
    30    15    29 1   
    31    15    51 1   
    32    17    18 1   
    33    17    52 1   
    34    18    19 1   
    35    18    20 2   
    36    19    21 1   
    37    21    32 1   
    38    21    33 1   
    39    21    34 1   
    40    22    23 1   
    41    22    53 1   
    42    22    54 1   
    43    23    24 1   
    44    23    27 1   
    45    23    55 1   
    46    24    25 1   
    47    24    56 1   
    48    24    57 1   
    49    25    26 1   
    50    25    58 1   
    51    25    59 1   
    52    26    27 1   
    53    26    60 1   
    54    27    28 2   
    55    29    30 1   
    56    29    31 1   
    57    29    61 1   
    58    30    62 1   
    59    30    63 1   
    60    30    64 1   
    61    31    65 1   
    62    31    66 1   
    63    31    67 1   
    64    32    68 1   
    65    32    69 1   
    66    32    70 1   
    67    33    71 1   
    68    33    72 1   
    69    33    73 1   
    70    34    74 1   
    71    34    75 1   
    72    34    76 1   
    73    35    36 1   
    74    35    77 1   
    75    36    37 1   
    76    36    38 2   
    77    37    39 1   
    78    39    40 1   
    79    39    78 1   
    80    39    79 1   
    81    40    80 1   
    82    40    81 1   
    83    40    82 1   
@<TRIPOS>SUBSTRUCTURE
     1 ENB         1 TEMP              0 ****  ****    0 ROOT
