@<TRIPOS>MOLECULE
ENB
   82    83     1     0     0
SMALL
No Charge or Current Charge


@<TRIPOS>ATOM
      1 C1           3.5200     1.0020     0.5330 c3         1 ENB       0.139900
      2 C2           4.5870    -0.0390     0.7960 c2         1 ENB      -0.178200
      3 N1           2.2270     0.3630     0.7500 ns         1 ENB      -0.495900
      4 C3           1.0380     0.7650     0.1790 c          1 ENB       0.596100
      5 C4          -0.1900    -0.1220     0.5380 c3         1 ENB       0.084000
      6 O1           0.9710     1.7330    -0.5700 o          1 ENB      -0.597100
      7 N2          -1.4250     0.4140    -0.0680 ns         1 ENB      -0.497900
      8 C5           0.0370    -1.5760     0.1220 ca         1 ENB      -0.111300
      9 C6           0.3000    -1.9010    -1.2250 ca         1 ENB      -0.089500
     10 C7           0.5230    -3.2370    -1.6020 ca         1 ENB      -0.109000
     11 C8           0.4830    -4.2570    -0.6360 ca         1 ENB      -0.099000
     12 C9           0.2180    -3.9390     0.7060 ca         1 ENB      -0.109000
     13 C10         -0.0040    -2.6040     1.0850 ca         1 ENB      -0.089500
     14 C11         -2.7000     0.1670     0.3950 c          1 ENB       0.592100
     15 C12         -3.8450     0.8460    -0.4170 c3         1 ENB       0.051700
     16 O2          -2.9010    -0.5360     1.3790 o          1 ENB      -0.601100
     17 N3          -5.1590     0.3110     0.0070 ns         1 ENB      -0.493900
     18 C13         -6.2070     0.0360    -0.8210 c          1 ENB       0.655100
     19 O3          -7.2420    -0.4190    -0.0520 os         1 ENB      -0.474100
     20 O4          -6.1920     0.1780    -2.0320 o          1 ENB      -0.557000
     21 C14         -8.5250    -0.7870    -0.6120 c3         1 ENB       0.225000
     22 C15          3.6750     2.2710     1.4100 c3         1 ENB      -0.062400
     23 C16          5.0180     3.0400     1.2500 c5         1 ENB      -0.154700
     24 C17          5.1820     4.2400     2.2220 c5         1 ENB      -0.092400
     25 C18          6.3190     5.0400     1.5300 c5         1 ENB       0.100000
     26 N4           5.9790     4.8270     0.1250 ns         1 ENB      -0.512900
     27 C19          5.2420     3.7000    -0.1210 c          1 ENB       0.562000
     28 O5           4.7080     3.4810    -1.1950 o          1 ENB      -0.552000
     29 C20         -3.7920     2.4060    -0.3300 c3         1 ENB      -0.069700
     30 C21         -4.7640     3.0920    -1.3190 c3         1 ENB      -0.089100
     31 C22         -4.0020     2.9370     1.1100 c3         1 ENB      -0.089100
     32 C23         -8.3470    -1.9810    -1.5850 c3         1 ENB      -0.108767
     33 C24         -9.3630    -1.2240     0.6090 c3         1 ENB      -0.108767
     34 C25         -9.1740     0.4520    -1.2830 c3         1 ENB      -0.108767
     35 C26          4.9400    -1.0280    -0.0610 ce         1 ENB      -0.242200
     36 C27          5.9830    -2.0490     0.2210 c          1 ENB       0.594300
     37 O6           6.1130    -2.9190    -0.8280 os         1 ENB      -0.441100
     38 O7           6.6370    -2.1020     1.2540 o          1 ENB      -0.499000
     39 C28          7.0820    -3.9750    -0.7120 c3         1 ENB       0.167600
     40 C29          7.0220    -4.8000    -2.0070 c3         1 ENB      -0.097100
     41 H1           3.5770     1.3000    -0.5240 h1         1 ENB       0.110700
     42 H2           5.0740     0.0450     1.7700 ha         1 ENB       0.189000
     43 HN1          2.1970    -0.4700     1.3250 hn         1 ENB       0.317500
     44 H4          -0.2910    -0.0720     1.6300 h1         1 ENB       0.078700
     45 HN2         -1.3330     1.0270    -0.8700 hn         1 ENB       0.346500
     46 H6           0.3340    -1.1200    -1.9820 ha         1 ENB       0.116000
     47 H7           0.7270    -3.4810    -2.6420 ha         1 ENB       0.115000
     48 H8           0.6560    -5.2900    -0.9280 ha         1 ENB       0.114000
     49 H9           0.1850    -4.7280     1.4550 ha         1 ENB       0.115000
     50 H10         -0.2100    -2.3710     2.1270 ha         1 ENB       0.116000
     51 H12         -3.6760     0.5550    -1.4630 h1         1 ENB       0.092700
     52 HN3         -5.3070     0.1010     0.9860 hn         1 ENB       0.342500
     53 H151         2.8440     2.9530     1.1900 hc         1 ENB       0.051200
     54 H152         3.5530     1.9790     2.4610 hc         1 ENB       0.051200
     55 H16          5.8630     2.3650     1.4270 hc         1 ENB       0.083700
     56 H171         4.2640     4.8390     2.2750 hc         1 ENB       0.058700
     57 H172         5.4380     3.9370     3.2440 hc         1 ENB       0.058700
     58 H181         6.3090     6.1010     1.8160 h1         1 ENB       0.047200
     59 H182         7.3070     4.6250     1.7690 h1         1 ENB       0.047200
     60 HN4          6.1620     5.4690    -0.6380 hn         1 ENB       0.330500
     61 H20         -2.7850     2.7160    -0.6360 hc         1 ENB       0.052700
     62 H211        -4.6060     4.1770    -1.3260 hc         1 ENB       0.039033
     63 H212        -4.6060     2.7220    -2.3400 hc         1 ENB       0.039033
     64 H213        -5.8090     2.9060    -1.0430 hc         1 ENB       0.039033
     65 H221        -3.2640     2.5120     1.8000 hc         1 ENB       0.039033
     66 H222        -3.8930     4.0280     1.1370 hc         1 ENB       0.039033
     67 H223        -5.0040     2.6890     1.4820 hc         1 ENB       0.039033
     68 H231        -7.7360    -2.7690    -1.1280 hc         1 ENB       0.049033
     69 H232        -9.3210    -2.4140    -1.8400 hc         1 ENB       0.049033
     70 H233        -7.8730    -1.6780    -2.5250 hc         1 ENB       0.049033
     71 H241        -9.4610    -0.4020     1.3290 hc         1 ENB       0.049033
     72 H242       -10.3710    -1.5280     0.3020 hc         1 ENB       0.049033
     73 H243        -8.8930    -2.0720     1.1210 hc         1 ENB       0.049033
     74 H251        -8.6830     0.7110    -2.2270 hc         1 ENB       0.049033
     75 H252       -10.2280     0.2540    -1.5100 hc         1 ENB       0.049033
     76 H253        -9.1280     1.3230    -0.6180 hc         1 ENB       0.049033
     77 H26          4.4530    -1.1260    -1.0300 ha         1 ENB       0.215000
     78 H281         6.8550    -4.6230     0.1460 h1         1 ENB       0.046700
     79 H282         8.0930    -3.5660    -0.5830 h1         1 ENB       0.046700
     80 H291         7.7470    -5.6220    -1.9670 hc         1 ENB       0.047033
     81 H292         6.0230    -5.2280    -2.1470 hc         1 ENB       0.047033
     82 H293         7.2610    -4.1740    -2.8750 hc         1 ENB       0.047033
@<TRIPOS>BOND
     1     1     2 1   
     2     1     3 1   
     3     1    22 1   
     4     1    41 1   
     5     2    35 2   
     6     2    42 1   
     7     3     4 1   
     8     3    43 1   
     9     4     5 1   
    10     4     6 2   
    11     5     7 1   
    12     5     8 1   
    13     5    44 1   
    14     7    14 1   
    15     7    45 1   
    16     8     9 ar  
    17     8    13 ar  
    18     9    10 ar  
    19     9    46 1   
    20    10    11 ar  
    21    10    47 1   
    22    11    12 ar  
    23    11    48 1   
    24    12    13 ar  
    25    12    49 1   
    26    13    50 1   
    27    14    15 1   
    28    14    16 2   
    29    15    17 1   
    30    15    29 1   
    31    15    51 1   
    32    17    18 1   
    33    17    52 1   
    34    18    19 1   
    35    18    20 2   
    36    19    21 1   
    37    21    32 1   
    38    21    33 1   
    39    21    34 1   
    40    22    23 1   
    41    22    53 1   
    42    22    54 1   
    43    23    24 1   
    44    23    27 1   
    45    23    55 1   
    46    24    25 1   
    47    24    56 1   
    48    24    57 1   
    49    25    26 1   
    50    25    58 1   
    51    25    59 1   
    52    26    27 1   
    53    26    60 1   
    54    27    28 2   
    55    29    30 1   
    56    29    31 1   
    57    29    61 1   
    58    30    62 1   
    59    30    63 1   
    60    30    64 1   
    61    31    65 1   
    62    31    66 1   
    63    31    67 1   
    64    32    68 1   
    65    32    69 1   
    66    32    70 1   
    67    33    71 1   
    68    33    72 1   
    69    33    73 1   
    70    34    74 1   
    71    34    75 1   
    72    34    76 1   
    73    35    36 1   
    74    35    77 1   
    75    36    37 1   
    76    36    38 2   
    77    37    39 1   
    78    39    40 1   
    79    39    78 1   
    80    39    79 1   
    81    40    80 1   
    82    40    81 1   
    83    40    82 1   
@<TRIPOS>SUBSTRUCTURE
     1 ENB         1 TEMP              0 ****  ****    0 ROOT
