@<TRIPOS>MOLECULE
ENC
   10     9     1     0     0
SMALL
abcg2


@<TRIPOS>ATOM
      1 C           -1.7290     0.2170    -0.0110 c1         1 ENC       0.586000
      2 N           -0.6690    -0.1780     0.0010 n1         1 ENC      -0.606500
      3 C1           0.6760    -0.6550     0.0230 c3         1 ENC       0.269100
      4 C2           1.6620     0.4970     0.0370 c3         1 ENC      -0.123100
      5 H           -2.7380     0.5890    -0.0170 ha         1 ENC       0.375000
      6 H11          0.7860    -1.2840    -0.8590 h1         1 ENC       0.119700
      7 H12          0.7570    -1.2820     0.9090 h1         1 ENC       0.119700
      8 H21          1.5650     1.1140    -0.8540 hc         1 ENC       0.086367
      9 H22          1.5360     1.1170     0.9220 hc         1 ENC       0.086367
     10 H23          2.6640     0.0740     0.0540 hc         1 ENC       0.086367
@<TRIPOS>BOND
     1     1     2 3   
     2     1     5 1   
     3     2     3 1   
     4     3     4 1   
     5     3     6 1   
     6     3     7 1   
     7     4     8 1   
     8     4     9 1   
     9     4    10 1   
@<TRIPOS>SUBSTRUCTURE
     1 ENC         1 TEMP              0 ****  ****    0 ROOT
