@<TRIPOS>MOLECULE
ENC
   10     9     1     0     0
SMALL
No Charge or Current Charge


@<TRIPOS>ATOM
      1 C           -1.7770     0.2510    -0.0100 c1         1 ENC       0.586000
      2 N           -0.6680    -0.1400     0.0050 n1         1 ENC      -0.606500
      3 C1           0.6690    -0.6850     0.0240 c3         1 ENC       0.269100
      4 C2           1.6700     0.4830     0.0370 c3         1 ENC      -0.123100
      5 H           -2.7820     0.6050    -0.0230 ha         1 ENC       0.375000
      6 H11          0.8260    -1.3110    -0.8660 h1         1 ENC       0.119700
      7 H12          0.8020    -1.3110     0.9170 h1         1 ENC       0.119700
      8 H21          1.5480     1.1080    -0.8550 hc         1 ENC       0.086367
      9 H22          1.5240     1.1080     0.9250 hc         1 ENC       0.086367
     10 H23          2.6980     0.1010     0.0510 hc         1 ENC       0.086367
@<TRIPOS>BOND
     1     1     2 3   
     2     1     5 1   
     3     2     3 1   
     4     3     4 1   
     5     3     6 1   
     6     3     7 1   
     7     4     8 1   
     8     4     9 1   
     9     4    10 1   
@<TRIPOS>SUBSTRUCTURE
     1 ENC         1 TEMP              0 ****  ****    0 ROOT
