@<TRIPOS>MOLECULE
END
   48    51     1     0     0
SMALL
abcg2


@<TRIPOS>ATOM
      1 OAB          5.9860     0.9540    -0.3420 oh         1 END      -0.720000
      2 CAP          4.7070     0.8230     0.2410 c3         1 END       0.180500
      3 CAF          3.8320     1.9840    -0.1700 c2         1 END      -0.255200
      4 CAG          2.5100     2.1170    -0.1420 c2         1 END      -0.187200
      5 CAQ          1.4790     1.1320     0.3220 c6         1 END       0.168500
      6 OAM          0.2370     1.5570    -0.2090 os         1 END      -0.431000
      7 CAX         -0.8420     0.7960     0.2720 c6         1 END       0.139300
      8 CAR         -2.1400     1.3550    -0.2650 c6         1 END       0.184300
      9 OAC         -2.3140     2.6610     0.2190 oh         1 END      -0.704000
     10 CAW         -3.2920     0.4390     0.1580 c6         1 END       0.100300
     11 OAL         -4.4400     0.9560    -0.4680 os         1 END      -0.460000
     12 CAH         -5.6770     0.5980     0.1100 c3         1 END       0.196800
     13 CAD         -6.1600    -0.7640    -0.2970 c2         1 END      -0.253200
     14 CAE         -5.4390    -1.8780    -0.2220 c2         1 END      -0.196200
     15 CAJ         -4.0460    -2.0020     0.3280 c3         1 END      -0.046200
     16 CAU         -3.0190    -1.0220    -0.2240 c6         1 END       0.151300
     17 OAO         -1.7700    -1.4230     0.3110 os         1 END      -0.448000
     18 CAV         -0.6960    -0.6560    -0.1720 c6         1 END       0.136300
     19 CAK          0.6140    -1.2180     0.3440 c6         1 END      -0.076400
     20 CAT          1.7600    -0.3150    -0.0960 c6         1 END       0.154300
     21 OAN          2.9380    -0.7840     0.5030 os         1 END      -0.448000
     22 CAS          4.1470    -0.5380    -0.1800 c3         1 END       0.183300
     23 CAI          5.0910    -1.6780     0.1570 c3         1 END       0.165600
     24 OAA          4.5190    -2.8760    -0.3130 oh         1 END      -0.714000
     25 HAA          5.1510    -3.5840    -0.1640 ho         1 END       0.502000
     26 HAI1         6.0620    -1.4870    -0.3080 h1         1 END       0.034700
     27 HAI2         5.2520    -1.7020     1.2440 h1         1 END       0.034700
     28 HAS          3.9770    -0.5290    -1.2680 h1         1 END       0.063700
     29 HAT          1.8450    -0.3480    -1.1920 h1         1 END       0.053700
     30 HAK1         0.5870    -1.2640     1.4380 hc         1 END       0.071200
     31 HAK2         0.7760    -2.2320    -0.0310 hc         1 END       0.071200
     32 HAV         -0.6860    -0.6790    -1.2750 h1         1 END       0.047700
     33 HAU         -2.9960    -1.0980    -1.3230 h1         1 END       0.053700
     34 HAJ1        -4.0770    -1.8950     1.4190 hc         1 END       0.062200
     35 HAJ2        -3.6800    -3.0110     0.1320 hc         1 END       0.062200
     36 HAE         -5.9000    -2.8030    -0.5520 ha         1 END       0.175000
     37 HAD         -7.1740    -0.8270    -0.6790 ha         1 END       0.179000
     38 HAH1        -5.6150     0.6650     1.2060 h1         1 END       0.051700
     39 HAH2        -6.3950     1.3540    -0.2110 h1         1 END       0.051700
     40 HAW         -3.4000     0.4960     1.2540 h1         1 END       0.055700
     41 HAR         -2.0880     1.3450    -1.3670 h1         1 END       0.052700
     42 HAC         -3.1520     2.9940    -0.1210 ho         1 END       0.516000
     43 HAX         -0.8640     0.8250     1.3760 h1         1 END       0.059700
     44 HAQ          1.4320     1.1570     1.4250 h1         1 END       0.058700
     45 HAG          2.1040     3.0740    -0.4550 ha         1 END       0.192000
     46 HAF          4.3910     2.8530    -0.5060 ha         1 END       0.175000
     47 HAP          4.7840     0.8190     1.3400 h1         1 END       0.048700
     48 HAB          6.4470     1.6790     0.0910 ho         1 END       0.508000
@<TRIPOS>BOND
     1     1     2 1   
     2     1    48 1   
     3     2     3 1   
     4     2    22 1   
     5     2    47 1   
     6     3     4 2   
     7     3    46 1   
     8     4     5 1   
     9     4    45 1   
    10     5     6 1   
    11     5    20 1   
    12     5    44 1   
    13     6     7 1   
    14     7     8 1   
    15     7    18 1   
    16     7    43 1   
    17     8     9 1   
    18     8    10 1   
    19     8    41 1   
    20     9    42 1   
    21    10    11 1   
    22    10    16 1   
    23    10    40 1   
    24    11    12 1   
    25    12    13 1   
    26    12    38 1   
    27    12    39 1   
    28    13    14 2   
    29    13    37 1   
    30    14    15 1   
    31    14    36 1   
    32    15    16 1   
    33    15    34 1   
    34    15    35 1   
    35    16    17 1   
    36    16    33 1   
    37    17    18 1   
    38    18    19 1   
    39    18    32 1   
    40    19    20 1   
    41    19    30 1   
    42    19    31 1   
    43    20    21 1   
    44    20    29 1   
    45    21    22 1   
    46    22    23 1   
    47    22    28 1   
    48    23    24 1   
    49    23    26 1   
    50    23    27 1   
    51    24    25 1   
@<TRIPOS>SUBSTRUCTURE
     1 END         1 TEMP              0 ****  ****    0 ROOT
