@<TRIPOS>MOLECULE
END
   48    51     1     0     0
SMALL
No Charge or Current Charge


@<TRIPOS>ATOM
      1 OAB          6.0460     1.1250     0.3430 oh         1 END      -0.720000
      2 CAP          4.6410     0.8410     0.3810 c3         1 END       0.180500
      3 CAF          3.9380     1.9250    -0.4000 c2         1 END      -0.255200
      4 CAG          2.6100     2.0420    -0.5450 c2         1 END      -0.187200
      5 CAQ          1.5880     1.1010     0.0690 c6         1 END       0.168500
      6 OAM          0.2860     1.5590    -0.3670 os         1 END      -0.431000
      7 CAX         -0.8280     0.8010     0.1590 c6         1 END       0.139300
      8 CAR         -2.2030     1.3980    -0.2660 c6         1 END       0.184300
      9 OAC         -2.3840     2.7570     0.1800 oh         1 END      -0.704000
     10 CAW         -3.3610     0.5040     0.2620 c6         1 END       0.100300
     11 OAL         -4.6330     1.1000    -0.1180 os         1 END      -0.460000
     12 CAH         -5.8310     0.6090     0.5140 c3         1 END       0.196800
     13 CAD         -6.2750    -0.6600    -0.1800 c2         1 END      -0.253200
     14 CAE         -5.5670    -1.7940    -0.2710 c2         1 END      -0.196200
     15 CAJ         -4.1750    -1.9850     0.2890 c3         1 END      -0.046200
     16 CAU         -3.1470    -0.9590    -0.2540 c6         1 END       0.151300
     17 OAO         -1.8430    -1.4360     0.1600 os         1 END      -0.448000
     18 CAV         -0.7350    -0.6610    -0.3500 c6         1 END       0.136300
     19 CAK          0.6070    -1.2750     0.0970 c6         1 END      -0.076400
     20 CAT          1.8160    -0.4020    -0.3370 c6         1 END       0.154300
     21 OAN          2.9970    -0.9940     0.2620 os         1 END      -0.448000
     22 CAS          4.3220    -0.5870    -0.1770 c3         1 END       0.183300
     23 CAI          5.3220    -1.6770     0.3240 c3         1 END       0.165600
     24 OAA          5.0290    -2.9760    -0.2380 oh         1 END      -0.714000
     25 HAA          5.6500    -3.6160     0.1810 ho         1 END       0.502000
     26 HAI1         6.3430    -1.3850     0.0460 h1         1 END       0.034700
     27 HAI2         5.2800    -1.7170     1.4210 h1         1 END       0.034700
     28 HAS          4.3750    -0.5580    -1.2730 h1         1 END       0.063700
     29 HAT          1.9110    -0.4600    -1.4310 h1         1 END       0.053700
     30 HAK1         0.6090    -1.3860     1.1900 hc         1 END       0.071200
     31 HAK2         0.7100    -2.2840    -0.3220 hc         1 END       0.071200
     32 HAV         -0.7800    -0.6670    -1.4500 h1         1 END       0.047700
     33 HAU         -3.1920    -0.9730    -1.3530 h1         1 END       0.053700
     34 HAJ1        -4.2060    -1.9370     1.3840 hc         1 END       0.062200
     35 HAJ2        -3.8320    -2.9980     0.0440 hc         1 END       0.062200
     36 HAE         -5.9770    -2.6650    -0.7890 ha         1 END       0.175000
     37 HAD         -7.2730    -0.5970    -0.6190 ha         1 END       0.179000
     38 HAH1        -5.6660     0.4240     1.5840 h1         1 END       0.051700
     39 HAH2        -6.6290     1.3590     0.4300 h1         1 END       0.051700
     40 HAW         -3.3060     0.4910     1.3610 h1         1 END       0.055700
     41 HAR         -2.2460     1.3740    -1.3650 h1         1 END       0.052700
     42 HAC         -3.3560     2.9120     0.1130 ho         1 END       0.516000
     43 HAX         -0.7680     0.8060     1.2580 h1         1 END       0.059700
     44 HAQ          1.6340     1.1850     1.1650 h1         1 END       0.058700
     45 HAG          2.1970     2.8600    -1.1390 ha         1 END       0.192000
     46 HAF          4.5950     2.6470    -0.8890 ha         1 END       0.175000
     47 HAP          4.2950     0.8750     1.4250 h1         1 END       0.048700
     48 HAB          6.1800     1.9720     0.8280 ho         1 END       0.508000
@<TRIPOS>BOND
     1     1     2 1   
     2     1    48 1   
     3     2     3 1   
     4     2    22 1   
     5     2    47 1   
     6     3     4 2   
     7     3    46 1   
     8     4     5 1   
     9     4    45 1   
    10     5     6 1   
    11     5    20 1   
    12     5    44 1   
    13     6     7 1   
    14     7     8 1   
    15     7    18 1   
    16     7    43 1   
    17     8     9 1   
    18     8    10 1   
    19     8    41 1   
    20     9    42 1   
    21    10    11 1   
    22    10    16 1   
    23    10    40 1   
    24    11    12 1   
    25    12    13 1   
    26    12    38 1   
    27    12    39 1   
    28    13    14 2   
    29    13    37 1   
    30    14    15 1   
    31    14    36 1   
    32    15    16 1   
    33    15    34 1   
    34    15    35 1   
    35    16    17 1   
    36    16    33 1   
    37    17    18 1   
    38    18    19 1   
    39    18    32 1   
    40    19    20 1   
    41    19    30 1   
    42    19    31 1   
    43    20    21 1   
    44    20    29 1   
    45    21    22 1   
    46    22    23 1   
    47    22    28 1   
    48    23    24 1   
    49    23    26 1   
    50    23    27 1   
    51    24    25 1   
@<TRIPOS>SUBSTRUCTURE
     1 END         1 TEMP              0 ****  ****    0 ROOT
