@<TRIPOS>MOLECULE
ENE
   60    64     1     0     0
SMALL
abcg2


@<TRIPOS>ATOM
      1 OAB         -5.6440     1.1660     1.8230 oh         1 ENE      -0.719000
      2 CAT         -6.1850     0.8200     0.5650 c3         1 ENE       0.174500
      3 CAG         -5.8590     1.7970    -0.5290 c2         1 ENE      -0.265200
      4 CAF         -4.6710     2.3480    -0.7640 c2         1 ENE      -0.169200
      5 CAM         -3.4000     2.2050     0.0280 c3         1 ENE      -0.047200
      6 CAY         -2.5810     0.9340    -0.2330 c3         1 ENE       0.180300
      7 OAR         -1.3550     1.1360     0.4410 os         1 ENE      -0.463000
      8 CAZ         -0.2170     0.5180    -0.1020 c6         1 ENE       0.151300
      9 CAN          0.9910     1.4050     0.1720 c6         1 ENE      -0.078400
     10 CBB          2.2530     0.6850    -0.2630 c6         1 ENE       0.136300
     11 OAS          3.3810     1.4480     0.0860 os         1 ENE      -0.449000
     12 CBA          4.5910     0.8930    -0.3980 c6         1 ENE       0.151300
     13 CAL          5.6920     1.8730    -0.0120 c3         1 ENE      -0.046200
     14 CAE          7.0470     1.5920    -0.5960 c2         1 ENE      -0.198200
     15 CAD          7.7000     0.4360    -0.5270 c2         1 ENE      -0.252200
     16 CAJ          7.1570    -0.8090     0.1150 c3         1 ENE       0.195800
     17 OAO          5.8820    -1.1840    -0.3640 os         1 ENE      -0.460000
     18 CBC          4.7840    -0.5090     0.1970 c6         1 ENE       0.100300
     19 CAW          3.5680    -1.4040    -0.0580 c6         1 ENE       0.184300
     20 OAC          3.6750    -2.6250     0.6260 oh         1 ENE      -0.703000
     21 CBD          2.3170    -0.6870     0.4010 c6         1 ENE       0.139300
     22 OAQ          1.1840    -1.4430     0.0540 os         1 ENE      -0.430000
     23 CAV         -0.0180    -0.8620     0.5250 c6         1 ENE       0.176500
     24 CAI         -1.1190    -1.8300     0.2230 c2         1 ENE      -0.209200
     25 CAH         -2.4260    -1.6100     0.1160 c2         1 ENE      -0.218200
     26 CAU         -3.2490    -0.3530     0.2690 c3         1 ENE       0.188500
     27 OAP         -4.4310    -0.5510    -0.4750 os         1 ENE      -0.448000
     28 CAX         -5.6590    -0.5850     0.2020 c3         1 ENE       0.183300
     29 CAK         -6.6450    -1.3030    -0.7000 c3         1 ENE       0.167600
     30 OAA         -6.1800    -2.6090    -0.9360 oh         1 ENE      -0.706000
     31 HAA         -6.8320    -3.0610    -1.4780 ho         1 ENE       0.503000
     32 HAK1        -7.6210    -1.3060    -0.2000 h1         1 ENE       0.024700
     33 HAK2        -6.7690    -0.7390    -1.6360 h1         1 ENE       0.024700
     34 HAX         -5.5720    -1.1560     1.1390 h1         1 ENE       0.062700
     35 HAU         -3.4720    -0.2280     1.3380 h1         1 ENE       0.072700
     36 HAH         -3.0430    -2.4840    -0.0700 ha         1 ENE       0.191000
     37 HAI         -0.7880    -2.8590     0.1220 ha         1 ENE       0.191000
     38 HAV          0.0480    -0.7260     1.6190 h1         1 ENE       0.057700
     39 HBD          2.3590    -0.5450     1.4950 h1         1 ENE       0.059700
     40 HAW          3.4890    -1.5670    -1.1460 h1         1 ENE       0.052700
     41 HAC          4.4740    -3.0670     0.3210 ho         1 ENE       0.516000
     42 HBC          4.9160    -0.4040     1.2870 h1         1 ENE       0.055700
     43 HAJ1         7.8210    -1.6490    -0.0920 h1         1 ENE       0.051700
     44 HAJ2         7.1300    -0.6880     1.2080 h1         1 ENE       0.051700
     45 HAD          8.6930     0.3710    -0.9580 ha         1 ENE       0.179000
     46 HAE          7.5360     2.4240    -1.0910 ha         1 ENE       0.175000
     47 HAL1         5.3740     2.8690    -0.3270 hc         1 ENE       0.061700
     48 HAL2         5.7650     1.9070     1.0810 hc         1 ENE       0.061700
     49 HBA          4.5490     0.8060    -1.4950 h1         1 ENE       0.053700
     50 HBB          2.2240     0.5360    -1.3550 h1         1 ENE       0.046700
     51 HAN1         0.8840     2.3530    -0.3610 hc         1 ENE       0.067200
     52 HAN2         1.0470     1.6260     1.2430 hc         1 ENE       0.067200
     53 HAZ         -0.3280     0.3890    -1.1890 h1         1 ENE       0.051700
     54 HAY         -2.4060     0.8310    -1.3140 h1         1 ENE       0.051700
     55 HAM1        -2.7490     3.0430    -0.2290 hc         1 ENE       0.059200
     56 HAM2        -3.5940     2.2790     1.0990 hc         1 ENE       0.059200
     57 HAF         -4.6010     2.9990    -1.6300 ha         1 ENE       0.166000
     58 HAG         -6.6670     2.0150    -1.2200 ha         1 ENE       0.174000
     59 HAT         -7.2790     0.7500     0.6490 h1         1 ENE       0.035700
     60 HAB         -5.8720     2.0840     2.0020 ho         1 ENE       0.510000
@<TRIPOS>BOND
     1     1     2 1   
     2     1    60 1   
     3     2     3 1   
     4     2    28 1   
     5     2    59 1   
     6     3     4 2   
     7     3    58 1   
     8     4     5 1   
     9     4    57 1   
    10     5     6 1   
    11     5    55 1   
    12     5    56 1   
    13     6     7 1   
    14     6    26 1   
    15     6    54 1   
    16     7     8 1   
    17     8     9 1   
    18     8    23 1   
    19     8    53 1   
    20     9    10 1   
    21     9    51 1   
    22     9    52 1   
    23    10    11 1   
    24    10    21 1   
    25    10    50 1   
    26    11    12 1   
    27    12    13 1   
    28    12    18 1   
    29    12    49 1   
    30    13    14 1   
    31    13    47 1   
    32    13    48 1   
    33    14    15 2   
    34    14    46 1   
    35    15    16 1   
    36    15    45 1   
    37    16    17 1   
    38    16    43 1   
    39    16    44 1   
    40    17    18 1   
    41    18    19 1   
    42    18    42 1   
    43    19    20 1   
    44    19    21 1   
    45    19    40 1   
    46    20    41 1   
    47    21    22 1   
    48    21    39 1   
    49    22    23 1   
    50    23    24 1   
    51    23    38 1   
    52    24    25 2   
    53    24    37 1   
    54    25    26 1   
    55    25    36 1   
    56    26    27 1   
    57    26    35 1   
    58    27    28 1   
    59    28    29 1   
    60    28    34 1   
    61    29    30 1   
    62    29    32 1   
    63    29    33 1   
    64    30    31 1   
@<TRIPOS>SUBSTRUCTURE
     1 ENE         1 TEMP              0 ****  ****    0 ROOT
