@<TRIPOS>MOLECULE
ENE
   60    64     1     0     0
SMALL
No Charge or Current Charge


@<TRIPOS>ATOM
      1 OAB         -5.3500     1.0710     2.1310 oh         1 ENE      -0.719000
      2 CAT         -6.1020     0.6970     0.9730 c3         1 ENE       0.174500
      3 CAG         -6.0350     1.7970    -0.0730 c2         1 ENE      -0.265200
      4 CAF         -4.9470     2.4400    -0.5430 c2         1 ENE      -0.169200
      5 CAM         -3.5030     2.2960    -0.0800 c3         1 ENE      -0.047200
      6 CAY         -2.7130     1.0450    -0.5590 c3         1 ENE       0.180300
      7 OAR         -1.3770     1.3130    -0.0640 os         1 ENE      -0.463000
      8 CAZ         -0.2360     0.5770    -0.5570 c6         1 ENE       0.151300
      9 CAN          1.0200     1.4300    -0.2270 c6         1 ENE      -0.078400
     10 CBB          2.3280     0.6710    -0.5230 c6         1 ENE       0.136300
     11 OAS          3.4720     1.4470    -0.1030 os         1 ENE      -0.449000
     12 CBA          4.7510     0.8270    -0.3860 c6         1 ENE       0.151300
     13 CAL          5.8320     1.8610     0.0220 c3         1 ENE      -0.046200
     14 CAE          7.2220     1.4930    -0.4470 c2         1 ENE      -0.198200
     15 CAD          7.8490     0.3460    -0.1470 c2         1 ENE      -0.252200
     16 CAJ          7.2990    -0.7610     0.7260 c3         1 ENE       0.195800
     17 OAO          6.0880    -1.2720     0.1370 os         1 ENE      -0.460000
     18 CBC          4.8510    -0.5420     0.3670 c6         1 ENE       0.100300
     19 CAW          3.6490    -1.4360    -0.0530 c6         1 ENE       0.184300
     20 OAC          3.7240    -2.7120     0.6130 oh         1 ENE      -0.703000
     21 CBD          2.3070    -0.6920     0.2180 c6         1 ENE       0.139300
     22 OAQ          1.1590    -1.4520    -0.2230 os         1 ENE      -0.430000
     23 CAV         -0.1210    -0.8490     0.0820 c6         1 ENE       0.176500
     24 CAI         -1.1800    -1.8000    -0.4330 c2         1 ENE      -0.209200
     25 CAH         -2.4990    -1.5630    -0.4720 c2         1 ENE      -0.218200
     26 CAU         -3.2560    -0.3250    -0.0150 c3         1 ENE       0.188500
     27 OAP         -4.5810    -0.5380    -0.5450 os         1 ENE      -0.448000
     28 CAX         -5.6650    -0.6980     0.4110 c3         1 ENE       0.183300
     29 CAK         -6.8400    -1.4000    -0.3320 c3         1 ENE       0.167600
     30 OAA         -6.5050    -2.7510    -0.7090 oh         1 ENE      -0.706000
     31 HAA         -7.2560    -3.0940    -1.2470 ho         1 ENE       0.503000
     32 HAK1        -7.7180    -1.4100     0.3270 h1         1 ENE       0.024700
     33 HAK2        -7.1040    -0.8090    -1.2200 h1         1 ENE       0.024700
     34 HAX         -5.3640    -1.3460     1.2460 h1         1 ENE       0.062700
     35 HAU         -3.2600    -0.2890     1.0830 h1         1 ENE       0.072700
     36 HAH         -3.1520    -2.3430    -0.8680 ha         1 ENE       0.191000
     37 HAI         -0.7990    -2.7550    -0.7980 ha         1 ENE       0.191000
     38 HAV         -0.2130    -0.7620     1.1750 h1         1 ENE       0.057700
     39 HBD          2.2160    -0.5140     1.3000 h1         1 ENE       0.059700
     40 HAW          3.7220    -1.5940    -1.1390 h1         1 ENE       0.052700
     41 HAC          4.6850    -2.9370     0.6080 ho         1 ENE       0.516000
     42 HBC          4.7670    -0.3460     1.4470 h1         1 ENE       0.055700
     43 HAJ1         8.0460    -1.5630     0.7940 h1         1 ENE       0.051700
     44 HAJ2         7.1190    -0.3920     1.7450 h1         1 ENE       0.051700
     45 HAD          8.8510     0.1500    -0.5320 ha         1 ENE       0.179000
     46 HAE          7.7050     2.2400    -1.0830 ha         1 ENE       0.175000
     47 HAL1         5.5660     2.8400    -0.3960 hc         1 ENE       0.061700
     48 HAL2         5.8310     1.9910     1.1110 hc         1 ENE       0.061700
     49 HBA          4.8260     0.6580    -1.4700 h1         1 ENE       0.053700
     50 HBB          2.4010     0.4940    -1.6070 h1         1 ENE       0.046700
     51 HAN1         0.9950     2.3620    -0.8070 hc         1 ENE       0.067200
     52 HAN2         0.9990     1.7170     0.8330 hc         1 ENE       0.067200
     53 HAZ         -0.3170     0.4780    -1.6500 h1         1 ENE       0.051700
     54 HAY         -2.7160     1.0240    -1.6570 h1         1 ENE       0.051700
     55 HAM1        -2.9550     3.1840    -0.4170 hc         1 ENE       0.059200
     56 HAM2        -3.4490     2.3410     1.0130 hc         1 ENE       0.059200
     57 HAF         -5.0730     3.1890    -1.3280 ha         1 ENE       0.166000
     58 HAG         -7.0110     2.0290    -0.5040 ha         1 ENE       0.174000
     59 HAT         -7.1540     0.6030     1.2780 h1         1 ENE       0.035700
     60 HAB         -5.5280     2.0280     2.2710 ho         1 ENE       0.510000
@<TRIPOS>BOND
     1     1     2 1   
     2     1    60 1   
     3     2     3 1   
     4     2    28 1   
     5     2    59 1   
     6     3     4 2   
     7     3    58 1   
     8     4     5 1   
     9     4    57 1   
    10     5     6 1   
    11     5    55 1   
    12     5    56 1   
    13     6     7 1   
    14     6    26 1   
    15     6    54 1   
    16     7     8 1   
    17     8     9 1   
    18     8    23 1   
    19     8    53 1   
    20     9    10 1   
    21     9    51 1   
    22     9    52 1   
    23    10    11 1   
    24    10    21 1   
    25    10    50 1   
    26    11    12 1   
    27    12    13 1   
    28    12    18 1   
    29    12    49 1   
    30    13    14 1   
    31    13    47 1   
    32    13    48 1   
    33    14    15 2   
    34    14    46 1   
    35    15    16 1   
    36    15    45 1   
    37    16    17 1   
    38    16    43 1   
    39    16    44 1   
    40    17    18 1   
    41    18    19 1   
    42    18    42 1   
    43    19    20 1   
    44    19    21 1   
    45    19    40 1   
    46    20    41 1   
    47    21    22 1   
    48    21    39 1   
    49    22    23 1   
    50    23    24 1   
    51    23    38 1   
    52    24    25 2   
    53    24    37 1   
    54    25    26 1   
    55    25    36 1   
    56    26    27 1   
    57    26    35 1   
    58    27    28 1   
    59    28    29 1   
    60    28    34 1   
    61    29    30 1   
    62    29    32 1   
    63    29    33 1   
    64    30    31 1   
@<TRIPOS>SUBSTRUCTURE
     1 ENE         1 TEMP              0 ****  ****    0 ROOT
