@<TRIPOS>MOLECULE
ENF
  130   130     1     0     0
SMALL
bcc


@<TRIPOS>ATOM
      1 C            6.9830     0.3410    -1.2860 c3         1 ENF       0.101000
      2 N            8.2540     0.2260    -0.6030 ns         1 ENF      -0.577900
      3 O           -4.1200     1.1110     2.0470 o          1 ENF      -0.616100
      4 C1           5.8260     0.3540    -0.2980 c3         1 ENF      -0.095400
      5 N1          -5.4460     1.0220     0.2290 ns         1 ENF      -0.563900
      6 C2           4.4790     0.4800    -0.9980 c3         1 ENF      -0.073400
      7 N2          -8.8630     0.0240     0.7830 ns         1 ENF      -0.559900
      8 C3           3.3070     0.4950    -0.0260 c3         1 ENF      -0.074400
      9 N3          -8.1400    -6.6060     0.0710 n8         1 ENF      -0.885800
     10 C4           1.9570     0.6490    -0.7160 c3         1 ENF      -0.074400
     11 C5           0.7870     0.6640     0.2600 c3         1 ENF      -0.074400
     12 C6          -0.5650     0.8390    -0.4200 c3         1 ENF      -0.076400
     13 C7          -1.7240     0.8490     0.5690 c3         1 ENF      -0.064400
     14 C8          -3.0640     1.0500    -0.1190 c3         1 ENF      -0.155400
     15 C9          -4.2440     1.0610     0.8310 c          1 ENF       0.669100
     16 C10         -6.6890     1.0420     0.9530 c3         1 ENF       0.038700
     17 C11         -7.1350     2.4550     1.3220 c3         1 ENF       0.120400
     18 C12         -7.7610     0.3620     0.1010 c          1 ENF       0.674100
     19 C13        -10.0390    -0.5670     0.1930 c3         1 ENF       0.031700
     20 C14        -10.1470    -2.0680     0.4960 c3         1 ENF      -0.087400
     21 C15         -8.9780    -2.8850    -0.0340 c3         1 ENF      -0.074400
     22 C16         -9.1350    -4.3710     0.2670 c3         1 ENF      -0.078400
     23 C17         -7.9630    -5.1950    -0.2430 c3         1 ENF       0.149800
     24 C18        -11.2710     0.1380     0.7550 c          1 ENF       0.657100
     25 C19        -13.6350     0.6580     0.3060 c3         1 ENF       0.100000
     26 C20        -14.7270    -0.0980    -0.4370 c3         1 ENF      -0.093400
     27 C21        -16.1420     0.3070    -0.0290 c6         1 ENF      -0.057700
     28 C22        -16.4670     1.7620    -0.3780 c6         1 ENF      -0.071900
     29 C23        -17.9000     2.1340    -0.0070 c6         1 ENF      -0.072900
     30 C24        -18.9090     1.1920    -0.6550 c6         1 ENF      -0.075400
     31 C25        -18.5980    -0.2600    -0.3070 c6         1 ENF      -0.072900
     32 C26        -17.1650    -0.6260    -0.6790 c6         1 ENF      -0.071900
     33 C27          9.3980     0.7770    -1.0380 c          1 ENF       0.667100
     34 O28          9.4740     1.4150    -2.0810 o          1 ENF      -0.607100
     35 C29         10.5920     0.5930    -0.1230 c3         1 ENF      -0.156400
     36 C30         11.9030     0.4120    -0.8750 c3         1 ENF      -0.067400
     37 C31         13.1010     0.3460     0.0630 c3         1 ENF      -0.076400
     38 C32         14.4240     0.1760    -0.6730 c3         1 ENF      -0.074400
     39 C33         15.6290     0.1400     0.2600 c3         1 ENF      -0.074400
     40 C34         16.9540    -0.0210    -0.4740 c3         1 ENF      -0.074400
     41 C35         18.1580    -0.0440     0.4600 c3         1 ENF      -0.074400
     42 C36         19.4860    -0.1950    -0.2720 c3         1 ENF      -0.074400
     43 C37         20.6890    -0.2120     0.6640 c3         1 ENF      -0.074400
     44 C38         22.0190    -0.3540    -0.0660 c3         1 ENF      -0.074400
     45 C39         23.2190    -0.3670     0.8720 c3         1 ENF      -0.075400
     46 C40         24.5530    -0.4980     0.1460 c3         1 ENF      -0.075400
     47 C41         25.7420    -0.5080     1.0970 c3         1 ENF      -0.088100
     48 H            6.9850     1.2630    -1.8670 h1         1 ENF       0.053700
     49 HA           6.8540    -0.4820    -1.9970 h1         1 ENF       0.053700
     50 HN           8.2830    -0.3370     0.2320 hn         1 ENF       0.308500
     51 H1           5.8420    -0.5630     0.3000 hc         1 ENF       0.042200
     52 H1A          5.9580     1.1860     0.4000 hc         1 ENF       0.042200
     53 HN1         -5.4980     0.9780    -0.7770 hn         1 ENF       0.343500
     54 HO1         -7.7040     4.0380     0.3660 ho         1 ENF       0.408000
     55 H2           4.4650     1.3970    -1.5980 hc         1 ENF       0.042200
     56 H2A          4.3550    -0.3470    -1.7050 hc         1 ENF       0.042200
     57 HN2         -8.8990     0.1990     1.7760 hn         1 ENF       0.334500
     58 H3           3.3120    -0.4290     0.5630 hc         1 ENF       0.038700
     59 H3A          3.4420     1.3130     0.6910 hc         1 ENF       0.038700
     60 HN3         -7.3700    -7.1370    -0.3160 hn         1 ENF       0.336300
     61 HN3A        -8.0750    -6.7320     1.0740 hn         1 ENF       0.336300
     62 H4A          1.9520     1.5750    -1.3020 hc         1 ENF       0.038200
     63 HN4        -12.2010    -0.1560    -1.0140 hn         1 ENF       0.316500
     64 H5A          0.7850    -0.2670     0.8390 hc         1 ENF       0.039700
     65 H6          -0.5650     1.7730    -0.9930 hc         1 ENF       0.036200
     66 H6A         -0.7120     0.0360    -1.1500 hc         1 ENF       0.036200
     67 H7          -1.7300    -0.0910     1.1280 hc         1 ENF       0.054200
     68 H7A         -1.5640     1.6420     1.3040 hc         1 ENF       0.054200
     69 H8          -3.0650     1.9990    -0.6670 hc         1 ENF       0.059700
     70 H8A         -3.2230     0.2750    -0.8760 hc         1 ENF       0.059700
     71 H10         -6.5680     0.4830     1.8850 h1         1 ENF       0.087700
     72 H11         -6.3320     2.9310     1.8960 h1         1 ENF       0.037700
     73 H11A        -8.0050     2.3920     1.9860 h1         1 ENF       0.037700
     74 H13         -9.9800    -0.4230    -0.8880 h1         1 ENF       0.088700
     75 H14        -10.2340    -2.2050     1.5790 hc         1 ENF       0.051700
     76 H14A       -11.0790    -2.4390     0.0600 hc         1 ENF       0.051700
     77 H15         -8.8840    -2.7360    -1.1140 hc         1 ENF       0.047200
     78 H15A        -8.0450    -2.5270     0.4100 hc         1 ENF       0.047200
     79 H16         -9.2340    -4.5110     1.3500 hc         1 ENF       0.045200
     80 H16A       -10.0600    -4.7480    -0.1790 hc         1 ENF       0.045200
     81 H17         -7.0300    -4.7710     0.1560 h1         1 ENF       0.028200
     82 H17A        -7.9030    -5.0920    -1.3310 h1         1 ENF       0.028200
     83 H19        -13.7610     0.5280     1.3820 h1         1 ENF       0.056700
     84 H19A       -13.6990     1.7310     0.1050 h1         1 ENF       0.056700
     85 H20        -14.6100     0.0470    -1.5170 hc         1 ENF       0.043700
     86 H20A       -14.5970    -1.1690    -0.2490 hc         1 ENF       0.043700
     87 H21        -16.2270     0.1920     1.0610 hc         1 ENF       0.050700
     88 H22        -15.7740     2.4430     0.1200 hc         1 ENF       0.038450
     89 H22A       -16.3210     1.9040    -1.4560 hc         1 ENF       0.038450
     90 H23        -18.0140     2.0910     1.0810 hc         1 ENF       0.039950
     91 H23A       -18.1040     3.1670    -0.2980 hc         1 ENF       0.039950
     92 H24        -19.9240     1.4490    -0.3430 hc         1 ENF       0.039200
     93 H24A       -18.8770     1.3190    -1.7430 hc         1 ENF       0.039200
     94 H25        -18.7410    -0.4110     0.7690 hc         1 ENF       0.039950
     95 H25A       -19.2990    -0.9310    -0.8090 hc         1 ENF       0.039950
     96 H26        -17.0480    -0.5760    -1.7680 hc         1 ENF       0.038450
     97 H26A       -16.9560    -1.6610    -0.3930 hc         1 ENF       0.038450
     98 H29         10.6540     1.4870     0.5070 hc         1 ENF       0.053700
     99 H29A        10.4320    -0.2450     0.5610 hc         1 ENF       0.053700
    100 H30         11.8600    -0.5010    -1.4780 hc         1 ENF       0.054700
    101 H30A        12.0390     1.2380    -1.5770 hc         1 ENF       0.054700
    102 H31         13.1370     1.2590     0.6680 hc         1 ENF       0.035700
    103 H31A        12.9700    -0.4800     0.7710 hc         1 ENF       0.035700
    104 H32         14.3960    -0.7450    -1.2660 hc         1 ENF       0.040200
    105 H32A        14.5470     0.9950    -1.3900 hc         1 ENF       0.040200
    106 H33         15.6520     1.0600     0.8550 hc         1 ENF       0.036200
    107 H33A        15.5080    -0.6800     0.9770 hc         1 ENF       0.036200
    108 H34         16.9340    -0.9450    -1.0640 hc         1 ENF       0.038200
    109 H34A        17.0710     0.7960    -1.1950 hc         1 ENF       0.038200
    110 H35         18.1740     0.8780     1.0520 hc         1 ENF       0.036700
    111 H35A        18.0440    -0.8630     1.1790 hc         1 ENF       0.036700
    112 H36A        19.4730    -1.1180    -0.8630 hc         1 ENF       0.037700
    113 H36B        19.5990     0.6230    -0.9920 hc         1 ENF       0.037700
    114 H37A        20.6970     0.7090     1.2580 hc         1 ENF       0.036700
    115 H37B        20.5780    -1.0330     1.3810 hc         1 ENF       0.036700
    116 H38         22.0120    -1.2750    -0.6600 hc         1 ENF       0.036700
    117 H38A        22.1290     0.4680    -0.7830 hc         1 ENF       0.036700
    118 H39         23.2220     0.5510     1.4700 hc         1 ENF       0.036700
    119 H39A        23.1130    -1.1910     1.5860 hc         1 ENF       0.036700
    120 H40         24.5520    -1.4160    -0.4510 hc         1 ENF       0.036700
    121 H40A        24.6590     0.3260    -0.5660 hc         1 ENF       0.036700
    122 H41         25.7810     0.4100     1.6870 hc         1 ENF       0.031367
    123 H41A        25.6790    -1.3450     1.7960 hc         1 ENF       0.031367
    124 H41B        26.6880    -0.5950     0.5610 hc         1 ENF       0.031367
    125 H4B          1.8200    -0.1660    -1.4350 hc         1 ENF       0.038200
    126 H5B          0.9320     1.4710     0.9870 hc         1 ENF       0.039700
    127 O1          -7.4230     3.1480     0.1350 oh         1 ENF      -0.592800
    128 O2          -7.6100     0.1690    -1.0960 o          1 ENF      -0.605100
    129 O3         -11.2800     0.5790     1.8960 o          1 ENF      -0.613100
    130 N4         -12.3250     0.1600    -0.0650 ns         1 ENF      -0.566900
@<TRIPOS>BOND
     1     1     2 1   
     2     1     4 1   
     3     1    48 1   
     4     1    49 1   
     5     2    33 1   
     6     2    50 1   
     7     3    15 2   
     8     4     6 1   
     9     4    51 1   
    10     4    52 1   
    11     5    15 1   
    12     5    16 1   
    13     5    53 1   
    14     6     8 1   
    15     6    55 1   
    16     6    56 1   
    17     7    18 1   
    18     7    19 1   
    19     7    57 1   
    20     8    10 1   
    21     8    58 1   
    22     8    59 1   
    23     9    23 1   
    24     9    60 1   
    25     9    61 1   
    26    10    11 1   
    27    10    62 1   
    28    10   125 1   
    29    11    12 1   
    30    11    64 1   
    31    11   126 1   
    32    12    13 1   
    33    12    65 1   
    34    12    66 1   
    35    13    14 1   
    36    13    67 1   
    37    13    68 1   
    38    14    15 1   
    39    14    69 1   
    40    14    70 1   
    41    16    17 1   
    42    16    18 1   
    43    16    71 1   
    44    17    72 1   
    45    17    73 1   
    46    17   127 1   
    47    18   128 2   
    48    19    20 1   
    49    19    24 1   
    50    19    74 1   
    51    20    21 1   
    52    20    75 1   
    53    20    76 1   
    54    21    22 1   
    55    21    77 1   
    56    21    78 1   
    57    22    23 1   
    58    22    79 1   
    59    22    80 1   
    60    23    81 1   
    61    23    82 1   
    62    24   129 2   
    63    24   130 1   
    64    25    26 1   
    65    25    83 1   
    66    25    84 1   
    67    25   130 1   
    68    26    27 1   
    69    26    85 1   
    70    26    86 1   
    71    27    28 1   
    72    27    32 1   
    73    27    87 1   
    74    28    29 1   
    75    28    88 1   
    76    28    89 1   
    77    29    30 1   
    78    29    90 1   
    79    29    91 1   
    80    30    31 1   
    81    30    92 1   
    82    30    93 1   
    83    31    32 1   
    84    31    94 1   
    85    31    95 1   
    86    32    96 1   
    87    32    97 1   
    88    33    34 2   
    89    33    35 1   
    90    35    36 1   
    91    35    98 1   
    92    35    99 1   
    93    36    37 1   
    94    36   100 1   
    95    36   101 1   
    96    37    38 1   
    97    37   102 1   
    98    37   103 1   
    99    38    39 1   
   100    38   104 1   
   101    38   105 1   
   102    39    40 1   
   103    39   106 1   
   104    39   107 1   
   105    40    41 1   
   106    40   108 1   
   107    40   109 1   
   108    41    42 1   
   109    41   110 1   
   110    41   111 1   
   111    42    43 1   
   112    42   112 1   
   113    42   113 1   
   114    43    44 1   
   115    43   114 1   
   116    43   115 1   
   117    44    45 1   
   118    44   116 1   
   119    44   117 1   
   120    45    46 1   
   121    45   118 1   
   122    45   119 1   
   123    46    47 1   
   124    46   120 1   
   125    46   121 1   
   126    47   122 1   
   127    47   123 1   
   128    47   124 1   
   129    54   127 1   
   130    63   130 1   
@<TRIPOS>SUBSTRUCTURE
     1 ENF         1 TEMP              0 ****  ****    0 ROOT
