@<TRIPOS>MOLECULE
ENF
  130   130     1     0     0
SMALL
No Charge or Current Charge


@<TRIPOS>ATOM
      1 C            6.6630     1.5250    -1.3560 c3         1 ENF       0.101000
      2 N            7.7980     0.7270    -0.8850 ns         1 ENF      -0.510900
      3 O           -4.5760     4.2360     2.1120 o          1 ENF      -0.616100
      4 C1           5.4010     1.3060    -0.4970 c3         1 ENF      -0.095400
      5 N1          -5.4600     3.0220     0.4030 ns         1 ENF      -0.496900
      6 C2           4.1900     2.1290    -0.9910 c3         1 ENF      -0.073400
      7 N2          -8.5910     1.0240     0.9110 ns         1 ENF      -0.492900
      8 C3           2.9240     1.9150    -0.1330 c3         1 ENF      -0.074400
      9 N3          -5.4570    -4.9720     1.9620 n8         1 ENF      -0.996200
     10 C4           1.7160     2.7430    -0.6240 c3         1 ENF      -0.074400
     11 C5           0.4490     2.5320     0.2340 c3         1 ENF      -0.074400
     12 C6          -0.7560     3.3650    -0.2550 c3         1 ENF      -0.076400
     13 C7          -2.0240     3.1580     0.6030 c3         1 ENF      -0.064400
     14 C8          -3.2270     3.9990     0.1150 c3         1 ENF      -0.155400
     15 C9          -4.4660     3.7700     0.9870 c          1 ENF       0.602100
     16 C10         -6.7750     2.7140     1.0220 c3         1 ENF       0.038700
     17 C11         -7.7060     3.9570     1.0650 c3         1 ENF       0.143600
     18 C12         -7.4490     1.5120     0.3040 c          1 ENF       0.607100
     19 C13         -9.4020    -0.1150     0.4180 c3         1 ENF       0.031700
     20 C14         -9.0040    -1.4420     1.1250 c3         1 ENF      -0.087400
     21 C15         -7.5350    -1.8760     0.9060 c3         1 ENF      -0.074400
     22 C16         -7.2060    -3.2400     1.5530 c3         1 ENF      -0.078400
     23 C17         -5.7390    -3.6660     1.3370 c3         1 ENF       0.149800
     24 C18        -10.9180     0.1900     0.6010 c          1 ENF       0.590100
     25 C19        -13.2320    -0.5520    -0.0360 c3         1 ENF       0.100000
     26 C20        -13.9030    -1.7510    -0.7380 c3         1 ENF      -0.093400
     27 C21        -15.4600    -1.7780    -0.6600 c6         1 ENF      -0.057700
     28 C22        -16.1150    -0.5500    -1.3590 c6         1 ENF      -0.071900
     29 C23        -17.6620    -0.6100    -1.2880 c6         1 ENF      -0.072900
     30 C24        -18.2030    -1.9320    -1.8820 c6         1 ENF      -0.075400
     31 C25        -17.5640    -3.1560    -1.1850 c6         1 ENF      -0.072900
     32 C26        -16.0180    -3.1000    -1.2620 c6         1 ENF      -0.071900
     33 C27          8.5970     1.0520     0.1880 c          1 ENF       0.600100
     34 O28          8.4250     2.0640     0.8530 o          1 ENF      -0.607100
     35 C29          9.6980     0.0340     0.5070 c3         1 ENF      -0.156400
     36 C30         11.0940     0.5610     0.1010 c3         1 ENF      -0.067400
     37 C31         12.2300    -0.4400     0.4030 c3         1 ENF      -0.076400
     38 C32         13.6230     0.0880    -0.0030 c3         1 ENF      -0.074400
     39 C33         14.7610    -0.9130     0.2980 c3         1 ENF      -0.074400
     40 C34         16.1540    -0.3840    -0.1080 c3         1 ENF      -0.074400
     41 C35         17.2920    -1.3830     0.1930 c3         1 ENF      -0.074400
     42 C36         18.6840    -0.8530    -0.2140 c3         1 ENF      -0.074400
     43 C37         19.8230    -1.8520     0.0860 c3         1 ENF      -0.074400
     44 C38         21.2150    -1.3210    -0.3190 c3         1 ENF      -0.074400
     45 C39         22.3540    -2.3200    -0.0190 c3         1 ENF      -0.075400
     46 C40         23.7470    -1.7890    -0.4240 c3         1 ENF      -0.075400
     47 C41         24.8840    -2.7850    -0.1250 c3         1 ENF      -0.088100
     48 H            6.9410     2.5880    -1.3420 h1         1 ENF       0.053700
     49 HA           6.4490     1.2470    -2.3970 h1         1 ENF       0.053700
     50 HN           8.0160    -0.1350    -1.3710 hn         1 ENF       0.308500
     51 H1           5.1420     0.2400    -0.5060 hc         1 ENF       0.042200
     52 H1A          5.6180     1.5760     0.5430 hc         1 ENF       0.042200
     53 HN1         -5.2870     2.6800    -0.5360 hn         1 ENF       0.343500
     54 HO1         -8.5250     5.2530    -0.1660 ho         1 ENF       0.447000
     55 H2           4.4530     3.1940    -0.9850 hc         1 ENF       0.042200
     56 H2A          3.9710     1.8580    -2.0310 hc         1 ENF       0.042200
     57 HN2         -8.9160     1.5110     1.7390 hn         1 ENF       0.334500
     58 H3           2.6580     0.8500    -0.1410 hc         1 ENF       0.038700
     59 H3A          3.1440     2.1820     0.9080 hc         1 ENF       0.038700
     60 HN3         -4.4580    -5.1870     1.8500 hn         1 ENF       0.391500
     61 HN3A        -5.5710    -4.8860     2.9790 hn         1 ENF       0.391500
     62 H4A          1.9820     3.8070    -0.6170 hc         1 ENF       0.038200
     63 HN4        -11.3530    -1.3940    -0.6250 hn         1 ENF       0.316500
     64 H5A          0.1790     1.4680     0.2230 hc         1 ENF       0.039700
     65 H6          -0.4850     4.4290    -0.2450 hc         1 ENF       0.036200
     66 H6A         -0.9780     3.1010    -1.2960 hc         1 ENF       0.036200
     67 H7          -2.2980     2.0950     0.5910 hc         1 ENF       0.054200
     68 H7A         -1.8000     3.4180     1.6460 hc         1 ENF       0.054200
     69 H8          -2.9540     5.0600     0.1700 hc         1 ENF       0.059700
     70 H8A         -3.4440     3.7260    -0.9240 hc         1 ENF       0.059700
     71 H10         -6.5960     2.3910     2.0560 h1         1 ENF       0.087700
     72 H11         -7.2190     4.7470     1.6520 h1         1 ENF       0.037700
     73 H11A        -8.6370     3.6970     1.5860 h1         1 ENF       0.037700
     74 H13         -9.2380    -0.2290    -0.6620 h1         1 ENF       0.088700
     75 H14         -9.1940    -1.3440     2.2010 hc         1 ENF       0.051700
     76 H14A        -9.6590    -2.2460     0.7660 hc         1 ENF       0.051700
     77 H15         -7.3310    -1.9300    -0.1710 hc         1 ENF       0.047200
     78 H15A        -6.8620    -1.1180     1.3240 hc         1 ENF       0.047200
     79 H16         -7.4130    -3.1860     2.6290 hc         1 ENF       0.045200
     80 H16A        -7.8700    -4.0070     1.1340 hc         1 ENF       0.045200
     81 H17         -5.0670    -2.9140     1.7730 h1         1 ENF       0.028200
     82 H17A        -5.5300    -3.7390     0.2610 h1         1 ENF       0.028200
     83 H19        -13.5590    -0.5130     1.0120 h1         1 ENF       0.056700
     84 H19A       -13.5280     0.3850    -0.5250 h1         1 ENF       0.056700
     85 H20        -13.5840    -1.7650    -1.7880 hc         1 ENF       0.043700
     86 H20A       -13.5070    -2.6690    -0.2860 hc         1 ENF       0.043700
     87 H21        -15.7190    -1.7510     0.4080 hc         1 ENF       0.050700
     88 H22        -15.7770     0.3840    -0.8920 hc         1 ENF       0.038450
     89 H22A       -15.7980    -0.5060    -2.4110 hc         1 ENF       0.038450
     90 H23        -17.9870    -0.5140    -0.2420 hc         1 ENF       0.039950
     91 H23A       -18.0930     0.2440    -1.8270 hc         1 ENF       0.039950
     92 H24        -19.2960    -1.9700    -1.7750 hc         1 ENF       0.039200
     93 H24A       -17.9920    -1.9680    -2.9600 hc         1 ENF       0.039200
     94 H25        -17.8810    -3.1920    -0.1330 hc         1 ENF       0.039950
     95 H25A       -17.9260    -4.0830    -1.6510 hc         1 ENF       0.039950
     96 H26        -15.7000    -3.1960    -2.3090 hc         1 ENF       0.038450
     97 H26A       -15.5960    -3.9630    -0.7290 hc         1 ENF       0.038450
     98 H29          9.6990    -0.1550     1.5870 hc         1 ENF       0.053700
     99 H29A         9.5100    -0.9030    -0.0320 hc         1 ENF       0.053700
    100 H30         11.0920     0.7930    -0.9720 hc         1 ENF       0.054700
    101 H30A        11.2930     1.5020     0.6290 hc         1 ENF       0.054700
    102 H31         12.2310    -0.6710     1.4750 hc         1 ENF       0.035700
    103 H31A        12.0320    -1.3800    -0.1280 hc         1 ENF       0.035700
    104 H32         13.6230     0.3190    -1.0760 hc         1 ENF       0.040200
    105 H32A        13.8210     1.0280     0.5270 hc         1 ENF       0.040200
    106 H33         14.7620    -1.1450     1.3710 hc         1 ENF       0.036200
    107 H33A        14.5630    -1.8530    -0.2330 hc         1 ENF       0.036200
    108 H34         16.1520    -0.1520    -1.1810 hc         1 ENF       0.038200
    109 H34A        16.3500     0.5560     0.4220 hc         1 ENF       0.038200
    110 H35         17.2940    -1.6150     1.2650 hc         1 ENF       0.036700
    111 H35A        17.0950    -2.3230    -0.3380 hc         1 ENF       0.036700
    112 H36A        18.6820    -0.6210    -1.2860 hc         1 ENF       0.037700
    113 H36B        18.8810     0.0870     0.3170 hc         1 ENF       0.037700
    114 H37A        19.8250    -2.0850     1.1590 hc         1 ENF       0.036700
    115 H37B        19.6270    -2.7920    -0.4450 hc         1 ENF       0.036700
    116 H38         21.2140    -1.0880    -1.3920 hc         1 ENF       0.036700
    117 H38A        21.4110    -0.3810     0.2120 hc         1 ENF       0.036700
    118 H39         22.3560    -2.5530     1.0530 hc         1 ENF       0.036700
    119 H39A        22.1590    -3.2600    -0.5520 hc         1 ENF       0.036700
    120 H40         23.7500    -1.5560    -1.4960 hc         1 ENF       0.036700
    121 H40A        23.9470    -0.8500     0.1080 hc         1 ENF       0.036700
    122 H41         24.9290    -3.0110     0.9480 hc         1 ENF       0.031367
    123 H41A        24.7310    -3.7230    -0.6710 hc         1 ENF       0.031367
    124 H41B        25.8500    -2.3650    -0.4280 hc         1 ENF       0.031367
    125 H4B          1.4950     2.4750    -1.6650 hc         1 ENF       0.038200
    126 H5B          0.6710     2.7960     1.2750 hc         1 ENF       0.039700
    127 O1          -7.9930     4.4310    -0.2600 oh         1 ENF      -0.655000
    128 O2          -7.0000     1.0090    -0.7200 o          1 ENF      -0.605100
    129 O3         -11.3380     1.1150     1.2870 o          1 ENF      -0.613100
    130 N4         -11.7730    -0.6550    -0.0730 ns         1 ENF      -0.499900
@<TRIPOS>BOND
     1     1     2 1   
     2     1     4 1   
     3     1    48 1   
     4     1    49 1   
     5     2    33 1   
     6     2    50 1   
     7     3    15 2   
     8     4     6 1   
     9     4    51 1   
    10     4    52 1   
    11     5    15 1   
    12     5    16 1   
    13     5    53 1   
    14     6     8 1   
    15     6    55 1   
    16     6    56 1   
    17     7    18 1   
    18     7    19 1   
    19     7    57 1   
    20     8    10 1   
    21     8    58 1   
    22     8    59 1   
    23     9    23 1   
    24     9    60 1   
    25     9    61 1   
    26    10    11 1   
    27    10    62 1   
    28    10   125 1   
    29    11    12 1   
    30    11    64 1   
    31    11   126 1   
    32    12    13 1   
    33    12    65 1   
    34    12    66 1   
    35    13    14 1   
    36    13    67 1   
    37    13    68 1   
    38    14    15 1   
    39    14    69 1   
    40    14    70 1   
    41    16    17 1   
    42    16    18 1   
    43    16    71 1   
    44    17    72 1   
    45    17    73 1   
    46    17   127 1   
    47    18   128 2   
    48    19    20 1   
    49    19    24 1   
    50    19    74 1   
    51    20    21 1   
    52    20    75 1   
    53    20    76 1   
    54    21    22 1   
    55    21    77 1   
    56    21    78 1   
    57    22    23 1   
    58    22    79 1   
    59    22    80 1   
    60    23    81 1   
    61    23    82 1   
    62    24   129 2   
    63    24   130 1   
    64    25    26 1   
    65    25    83 1   
    66    25    84 1   
    67    25   130 1   
    68    26    27 1   
    69    26    85 1   
    70    26    86 1   
    71    27    28 1   
    72    27    32 1   
    73    27    87 1   
    74    28    29 1   
    75    28    88 1   
    76    28    89 1   
    77    29    30 1   
    78    29    90 1   
    79    29    91 1   
    80    30    31 1   
    81    30    92 1   
    82    30    93 1   
    83    31    32 1   
    84    31    94 1   
    85    31    95 1   
    86    32    96 1   
    87    32    97 1   
    88    33    34 2   
    89    33    35 1   
    90    35    36 1   
    91    35    98 1   
    92    35    99 1   
    93    36    37 1   
    94    36   100 1   
    95    36   101 1   
    96    37    38 1   
    97    37   102 1   
    98    37   103 1   
    99    38    39 1   
   100    38   104 1   
   101    38   105 1   
   102    39    40 1   
   103    39   106 1   
   104    39   107 1   
   105    40    41 1   
   106    40   108 1   
   107    40   109 1   
   108    41    42 1   
   109    41   110 1   
   110    41   111 1   
   111    42    43 1   
   112    42   112 1   
   113    42   113 1   
   114    43    44 1   
   115    43   114 1   
   116    43   115 1   
   117    44    45 1   
   118    44   116 1   
   119    44   117 1   
   120    45    46 1   
   121    45   118 1   
   122    45   119 1   
   123    46    47 1   
   124    46   120 1   
   125    46   121 1   
   126    47   122 1   
   127    47   123 1   
   128    47   124 1   
   129    54   127 1   
   130    63   130 1   
@<TRIPOS>SUBSTRUCTURE
     1 ENF         1 TEMP              0 ****  ****    0 ROOT
