@<TRIPOS>MOLECULE
ENG
   22    22     1     0     0
SMALL
No Charge or Current Charge


@<TRIPOS>ATOM
      1 C10         -0.6120     2.0280    -0.6370 ca         1 ENG      -0.040000
      2 C15         -1.8140     0.0690     0.1700 ca         1 ENG       0.060100
      3 C02          4.4370     0.5550     0.7120 c          1 ENG       0.712200
      4 C04          3.1640    -0.0880     0.1090 ce         1 ENG       0.153900
      5 C06          1.9130     0.4670     0.1620 cf         1 ENG      -0.536200
      6 C07          0.6690    -0.1200    -0.3980 c          1 ENG       0.592900
      7 C09         -0.6100     0.6620    -0.2820 ca         1 ENG      -0.129600
      8 C11         -1.7930     2.7850    -0.5500 ca         1 ENG      -0.152000
      9 C12         -2.9790     2.1890    -0.1060 ca         1 ENG       0.137100
     10 C14         -2.9900     0.8350     0.2560 ca         1 ENG      -0.210000
     11 O01          5.5120    -0.0290     0.6090 o          1 ENG      -0.681500
     12 O03          4.3360     1.6380     1.2810 o          1 ENG      -0.681500
     13 O05          3.3030    -1.2890    -0.5180 oh         1 ENG      -0.505100
     14 O08          0.7190    -1.2010    -0.9710 o          1 ENG      -0.632100
     15 O13         -4.1200     2.9280    -0.0220 oh         1 ENG      -0.539100
     16 Br16        -1.8980    -1.7650     0.7360 br         1 ENG      -0.091100
     17 H1           0.3000     2.5030    -0.9940 ha         1 ENG       0.140000
     18 H3           1.7980     1.4240     0.6680 ha         1 ENG       0.214000
     19 H5          -1.7860     3.8360    -0.8300 ha         1 ENG       0.126000
     20 H6          -3.9060     0.3690     0.6110 ha         1 ENG       0.116000
     21 H8           2.3760    -1.4920    -0.8080 ho         1 ENG       0.487000
     22 H9          -4.8410     2.3500     0.3050 ho         1 ENG       0.460000
@<TRIPOS>BOND
     1     1     7 ar  
     2     1     8 ar  
     3     1    17 1   
     4     2     7 ar  
     5     2    10 ar  
     6     2    16 1   
     7     3     4 1   
     8     3    11 1   
     9     3    12 1   
    10     4     5 2   
    11     4    13 1   
    12     5     6 1   
    13     5    18 1   
    14     6     7 1   
    15     6    14 2   
    16     8     9 ar  
    17     8    19 1   
    18     9    10 ar  
    19     9    15 1   
    20    10    20 1   
    21    13    21 1   
    22    15    22 1   
@<TRIPOS>SUBSTRUCTURE
     1 ENG         1 TEMP              0 ****  ****    0 ROOT
