@<TRIPOS>MOLECULE
ENG
   22    22     1     0     0
SMALL
bcc


@<TRIPOS>ATOM
      1 C10         -0.5910     2.0120    -0.4590 ca         1 ENG      -0.058000
      2 C15         -1.8100     0.0570     0.1450 ca         1 ENG       0.060100
      3 C02          4.4070     0.5910     0.5640 c          1 ENG       0.922800
      4 C04          3.1080    -0.0700     0.0720 ce         1 ENG       0.153900
      5 C06          1.8950     0.5480     0.1800 cf         1 ENG      -0.486200
      6 C07          0.7000    -0.1010    -0.2800 c          1 ENG       0.592900
      7 C09         -0.5830     0.6430    -0.1750 ca         1 ENG      -0.129600
      8 C11         -1.7460     2.7640    -0.4490 ca         1 ENG      -0.170000
      9 C12         -2.9560     2.1540    -0.1270 ca         1 ENG       0.137100
     10 C14         -2.9810     0.7950     0.1830 ca         1 ENG      -0.228000
     11 O01          5.4430    -0.0530     0.3540 o          1 ENG      -0.786800
     12 O03          4.2700     1.6960     1.1120 o          1 ENG      -0.786800
     13 O05          3.2520    -1.2630    -0.4530 oh         1 ENG      -0.466100
     14 O08          0.7190    -1.2400    -0.7690 o          1 ENG      -0.632100
     15 O13         -4.0600     2.9110    -0.1170 oh         1 ENG      -0.500100
     16 BR16        -1.9500    -1.7600     0.6420 br         1 ENG      -0.091100
     17 H1           0.3390     2.4980    -0.7240 ha         1 ENG       0.158000
     18 H3           1.8530     1.5190     0.6450 ha         1 ENG       0.164000
     19 H5          -1.7160     3.8190    -0.6910 ha         1 ENG       0.144000
     20 H6          -3.9180     0.3260     0.4580 ha         1 ENG       0.134000
     21 H8           2.3450    -1.5770    -0.7050 ho         1 ENG       0.448000
     22 H9          -4.8400     2.3850     0.0970 ho         1 ENG       0.421000
@<TRIPOS>BOND
     1     1     7 ar  
     2     1     8 ar  
     3     1    17 1   
     4     2     7 ar  
     5     2    10 ar  
     6     2    16 1   
     7     3     4 1   
     8     3    11 1   
     9     3    12 1   
    10     4     5 2   
    11     4    13 1   
    12     5     6 1   
    13     5    18 1   
    14     6     7 1   
    15     6    14 2   
    16     8     9 ar  
    17     8    19 1   
    18     9    10 ar  
    19     9    15 1   
    20    10    20 1   
    21    13    21 1   
    22    15    22 1   
@<TRIPOS>SUBSTRUCTURE
     1 ENG         1 TEMP              0 ****  ****    0 ROOT
