@<TRIPOS>MOLECULE
ENH
   24    26     1     0     0
SMALL
No Charge or Current Charge


@<TRIPOS>ATOM
      1 Cl1         -1.5640     2.2870     1.0870 cl         1 ENH      -0.075000
      2 Cl2          1.8240     2.1400     1.0200 cl         1 ENH      -0.075000
      3 Cl3          2.8190    -0.2050    -1.2380 cl         1 ENH      -0.137000
      4 Cl          -2.8470     0.0410    -1.1270 cl         1 ENH      -0.137000
      5 Cl8          0.0110     1.2250    -2.7670 cl         1 ENH      -0.161500
      6 Cl9         -0.1140    -1.6850    -2.7130 cl         1 ENH      -0.161500
      7 C11         -0.6030     1.0860     0.2630 c2         1 ENH       0.043300
      8 C12          0.7300     1.0280     0.2370 c2         1 ENH       0.043300
      9 C5           1.1270    -0.2010    -0.5760 c5         1 ENH       0.170200
     10 C            0.7450    -1.4830     0.2610 c5         1 ENH      -0.161200
     11 C9          -0.8340    -1.4140     0.2920 c5         1 ENH      -0.161200
     12 C10         -1.1360    -0.1020    -0.5310 c5         1 ENH       0.170200
     13 C8          -0.0280    -0.2080    -1.6350 c5         1 ENH       0.289000
     14 N            0.0110    -1.1620     2.4460 n          1 ENH      -0.380400
     15 C6          -1.2050    -1.2440     1.7730 c          1 ENH       0.576500
     16 O           -2.3040    -1.3120     2.3000 o          1 ENH      -0.468500
     17 C7           1.1870    -1.3480     1.7250 c          1 ENH       0.576500
     18 O1           2.2960    -1.5110     2.2090 o          1 ENH      -0.468500
     19 CN           0.0460    -1.0280     3.9200 c3         1 ENH       0.090300
     20 H1           1.1690    -2.3980    -0.1690 hc         1 ENH       0.126700
     21 H91         -1.3520    -2.2890    -0.1190 hc         1 ENH       0.126700
     22 H11          0.9640    -0.5160     4.2340 h1         1 ENH       0.058033
     23 H12         -0.8130    -0.4410     4.2700 h1         1 ENH       0.058033
     24 H13          0.0120    -2.0230     4.3820 h1         1 ENH       0.058033
@<TRIPOS>BOND
     1     1     7 1   
     2     2     8 1   
     3     3     9 1   
     4     4    12 1   
     5     5    13 1   
     6     6    13 1   
     7     7     8 2   
     8     7    12 1   
     9     8     9 1   
    10     9    10 1   
    11     9    13 1   
    12    10    11 1   
    13    10    17 1   
    14    10    20 1   
    15    11    12 1   
    16    11    15 1   
    17    11    21 1   
    18    12    13 1   
    19    14    15 1   
    20    14    17 1   
    21    14    19 1   
    22    15    16 2   
    23    17    18 2   
    24    19    22 1   
    25    19    23 1   
    26    19    24 1   
@<TRIPOS>SUBSTRUCTURE
     1 ENH         1 TEMP              0 ****  ****    0 ROOT
