@<TRIPOS>MOLECULE
ENH
   24    26     1     0     0
SMALL
bcc


@<TRIPOS>ATOM
      1 CL1         -1.6530     2.1480     1.0430 cl         1 ENH       0.000600
      2 CL2          1.7640     2.0890     0.9770 cl         1 ENH       0.000600
      3 CL3          2.7260    -0.1450    -1.2250 cl         1 ENH      -0.060400
      4 CL          -2.7740    -0.0530    -1.1190 cl         1 ENH      -0.060400
      5 CL8         -0.0330     1.1590    -2.7320 cl         1 ENH      -0.084900
      6 CL9         -0.0810    -1.6900    -2.5770 cl         1 ENH      -0.084900
      7 C11         -0.6430     1.0800     0.2190 c2         1 ENH      -0.032300
      8 C12          0.6870     1.0570     0.1940 c2         1 ENH      -0.032300
      9 C5           1.1070    -0.1710    -0.5890 c5         1 ENH       0.093600
     10 C            0.7490    -1.4090     0.2740 c5         1 ENH      -0.161200
     11 C9          -0.7840    -1.3820     0.3060 c5         1 ENH      -0.161200
     12 C10         -1.1340    -0.1330    -0.5450 c5         1 ENH       0.093600
     13 C8          -0.0350    -0.2090    -1.6310 c5         1 ENH       0.135800
     14 N            0.0350    -1.2180     2.4930 n          1 ENH      -0.514400
     15 C6          -1.1350    -1.2390     1.7690 c          1 ENH       0.719000
     16 O           -2.2360    -1.1500     2.2430 o          1 ENH      -0.544000
     17 C7           1.1740    -1.2880     1.7200 c          1 ENH       0.719000
     18 O1           2.3020    -1.2540     2.1340 o          1 ENH      -0.544000
     19 CN           0.0420    -1.1060     3.9370 c3         1 ENH       0.090300
     20 H1           1.1580    -2.3230    -0.1570 hc         1 ENH       0.126700
     21 H91         -1.2440    -2.2830    -0.1000 hc         1 ENH       0.126700
     22 H11          1.0620    -1.2120     4.2920 h1         1 ENH       0.058033
     23 H12         -0.3440    -0.1370     4.2450 h1         1 ENH       0.058033
     24 H13         -0.5710    -1.8920     4.3730 h1         1 ENH       0.058033
@<TRIPOS>BOND
     1     1     7 1   
     2     2     8 1   
     3     3     9 1   
     4     4    12 1   
     5     5    13 1   
     6     6    13 1   
     7     7     8 2   
     8     7    12 1   
     9     8     9 1   
    10     9    10 1   
    11     9    13 1   
    12    10    11 1   
    13    10    17 1   
    14    10    20 1   
    15    11    12 1   
    16    11    15 1   
    17    11    21 1   
    18    12    13 1   
    19    14    15 1   
    20    14    17 1   
    21    14    19 1   
    22    15    16 2   
    23    17    18 2   
    24    19    22 1   
    25    19    23 1   
    26    19    24 1   
@<TRIPOS>SUBSTRUCTURE
     1 ENH         1 TEMP              0 ****  ****    0 ROOT
