@<TRIPOS>MOLECULE
ENK
   22    23     1     0     0
SMALL
No Charge or Current Charge


@<TRIPOS>ATOM
      1 N1          -1.1030    -0.6530    -0.2470 nc         1 ENK      -0.704000
      2 N3          -4.3610    -0.9080     0.8870 n8         1 ENK      -0.988200
      3 C4           1.2400     0.0860    -0.0240 ca         1 ENK      -0.146500
      4 C5           2.1700     1.1410     0.1430 ca         1 ENK      -0.067000
      5 C6           3.5510     0.8810     0.2000 ca         1 ENK      -0.123000
      6 C7           4.0260    -0.4350     0.0910 ca         1 ENK      -0.089000
      7 C8           3.1190    -1.4910    -0.0750 ca         1 ENK      -0.123000
      8 C2          -2.2460     0.0030    -0.2470 cd         1 ENK       0.487300
      9 C3          -0.2080     0.3650    -0.0830 cc         1 ENK       0.617500
     10 C9           1.7370    -1.2360    -0.1330 ca         1 ENK      -0.067000
     11 N2          -0.7170     1.5850     0.0120 nd         1 ENK      -0.378300
     12 O1          -2.1050     1.3500    -0.0980 os         1 ENK      -0.093700
     13 H9          -4.5550    -0.0230     1.3770 hn         1 ENK       0.408000
     14 H10         -5.3000    -1.2730     0.6750 hn         1 ENK       0.408000
     15 H3           1.8300     2.1720     0.2310 ha         1 ENK       0.132500
     16 H4           4.2530     1.7020     0.3290 ha         1 ENK       0.117000
     17 H5           5.0950    -0.6340     0.1350 ha         1 ENK       0.114000
     18 H6           3.4850    -2.5120    -0.1600 ha         1 ENK       0.117000
     19 H1          -3.5270    -1.5630    -0.9580 h1         1 ENK       0.062700
     20 H2          -4.2480     0.0540    -1.0120 h1         1 ENK       0.062700
     21 H7           1.0570    -2.0760    -0.2620 ha         1 ENK       0.132500
     22 C1          -3.6340    -0.6220    -0.4000 c3         1 ENK       0.120500
@<TRIPOS>BOND
     1     1     8 2   
     2     1     9 1   
     3     2    13 1   
     4     2    14 1   
     5     2    22 1   
     6     3     4 ar  
     7     3     9 1   
     8     3    10 ar  
     9     4     5 ar  
    10     4    15 1   
    11     5     6 ar  
    12     5    16 1   
    13     6     7 ar  
    14     6    17 1   
    15     7    10 ar  
    16     7    18 1   
    17     8    12 1   
    18     8    22 1   
    19     9    11 2   
    20    10    21 1   
    21    11    12 1   
    22    19    22 1   
    23    20    22 1   
@<TRIPOS>SUBSTRUCTURE
     1 ENK         1 TEMP              0 ****  ****    0 ROOT
