@<TRIPOS>MOLECULE
ENK
   22    23     1     0     0
SMALL
bcc


@<TRIPOS>ATOM
      1 N1          -1.1330    -0.6580    -0.3000 nc         1 ENK      -0.704000
      2 N3          -4.1610    -0.8560     0.8900 n8         1 ENK      -0.877800
      3 C4           1.2300     0.0750    -0.0260 ca         1 ENK      -0.146500
      4 C5           2.1330     1.1270     0.1370 ca         1 ENK      -0.085000
      5 C6           3.4920     0.8710     0.2060 ca         1 ENK      -0.141000
      6 C7           3.9640    -0.4340     0.1130 ca         1 ENK      -0.107000
      7 C8           3.0680    -1.4820    -0.0480 ca         1 ENK      -0.141000
      8 C2          -2.2480    -0.0110    -0.3000 cd         1 ENK       0.531700
      9 C3          -0.2080     0.3270    -0.0990 cc         1 ENK       0.617500
     10 C9           1.7060    -1.2310    -0.1180 ca         1 ENK      -0.085000
     11 N2          -0.7340     1.5110     0.0190 nd         1 ENK      -0.378300
     12 O1          -2.0740     1.2910    -0.1150 os         1 ENK      -0.138100
     13 H9          -4.4750    -0.0100     1.3480 hn         1 ENK       0.352800
     14 H10         -4.9810    -1.4370     0.7810 hn         1 ENK       0.352800
     15 H3           1.7750     2.1460     0.2080 ha         1 ENK       0.150500
     16 H4           4.1860     1.6900     0.3310 ha         1 ENK       0.135000
     17 H5           5.0270    -0.6300     0.1660 ha         1 ENK       0.132000
     18 H6           3.4290    -2.5000    -0.1210 ha         1 ENK       0.135000
     19 H1          -3.5750    -1.4570    -1.0130 h1         1 ENK       0.062700
     20 H2          -4.2370     0.1710    -1.0060 h1         1 ENK       0.062700
     21 H7           1.0120    -2.0510    -0.2430 ha         1 ENK       0.150500
     22 C1          -3.6360    -0.5400    -0.4290 c3         1 ENK       0.120500
@<TRIPOS>BOND
     1     1     8 2   
     2     1     9 1   
     3     2    13 1   
     4     2    14 1   
     5     2    22 1   
     6     3     4 ar  
     7     3     9 1   
     8     3    10 ar  
     9     4     5 ar  
    10     4    15 1   
    11     5     6 ar  
    12     5    16 1   
    13     6     7 ar  
    14     6    17 1   
    15     7    10 ar  
    16     7    18 1   
    17     8    12 1   
    18     8    22 1   
    19     9    11 2   
    20    10    21 1   
    21    11    12 1   
    22    19    22 1   
    23    20    22 1   
@<TRIPOS>SUBSTRUCTURE
     1 ENK         1 TEMP              0 ****  ****    0 ROOT
