@<TRIPOS>MOLECULE
ENL
   21    22     1     0     0
SMALL
No Charge or Current Charge


@<TRIPOS>ATOM
      1 O2          -1.3510     1.5100     1.1780 o          1 ENL      -0.748000
      2 C8          -1.1560     1.4800    -0.0290 c          1 ENL       0.749000
      3 O5          -1.8960     2.0780    -0.7970 o          1 ENL      -0.748000
      4 C4           0.1320     0.8280    -0.6270 c5         1 ENL      -0.181200
      5 C6           1.3870     1.1410     0.2540 c5         1 ENL       0.156800
      6 C5           2.6350     0.8470    -0.6440 c5         1 ENL      -0.116400
      7 O1           1.4250     0.0380     1.1610 os         1 ENL      -0.426000
      8 C3           0.1510    -0.7620    -0.6360 c5         1 ENL      -0.181200
      9 C7          -1.1200    -1.4520    -0.0450 c          1 ENL       0.749000
     10 O4          -1.3150    -1.5000     1.1610 o          1 ENL      -0.748000
     11 O3          -1.8450    -2.0600    -0.8200 o          1 ENL      -0.748000
     12 C2           1.4130    -1.0550     0.2420 c5         1 ENL       0.156800
     13 C1           2.6540    -0.7210    -0.6520 c5         1 ENL      -0.116400
     14 H4           0.2260     1.1720    -1.6640 hc         1 ENL       0.008700
     15 H6           1.3880     2.1190     0.7570 h1         1 ENL       0.071700
     16 H5           2.5560     1.2770    -1.6490 hc         1 ENL       0.010200
     17 H5A          3.5490     1.2520    -0.1940 hc         1 ENL       0.010200
     18 H3           0.2540    -1.0930    -1.6770 hc         1 ENL       0.008700
     19 H2           1.4380    -2.0380     0.7340 h1         1 ENL       0.071700
     20 H1           2.5850    -1.1410    -1.6630 hc         1 ENL       0.010200
     21 H1A          3.5780    -1.1080    -0.2070 hc         1 ENL       0.010200
@<TRIPOS>BOND
     1     1     2 1   
     2     2     3 1   
     3     2     4 1   
     4     4     5 1   
     5     4     8 1   
     6     4    14 1   
     7     5     6 1   
     8     5     7 1   
     9     5    15 1   
    10     6    13 1   
    11     6    16 1   
    12     6    17 1   
    13     7    12 1   
    14     8     9 1   
    15     8    12 1   
    16     8    18 1   
    17     9    10 1   
    18     9    11 1   
    19    12    13 1   
    20    12    19 1   
    21    13    20 1   
    22    13    21 1   
@<TRIPOS>SUBSTRUCTURE
     1 ENL         1 TEMP              0 ****  ****    0 ROOT
