@<TRIPOS>MOLECULE
ENL
   21    22     1     0     0
SMALL
bcc


@<TRIPOS>ATOM
      1 O2          -1.0700     2.1520     1.0550 o          1 ENL      -0.853300
      2 C8          -1.1480     1.4620     0.0190 c          1 ENL       0.959600
      3 O5          -2.1790     1.2570    -0.6540 o          1 ENL      -0.853300
      4 C4           0.1400     0.8500    -0.5530 c5         1 ENL      -0.181200
      5 C6           1.4060     1.0780     0.2740 c5         1 ENL       0.133600
      6 C5           2.6470     0.8210    -0.5950 c5         1 ENL      -0.116400
      7 O1           1.4170    -0.0350     1.1600 os         1 ENL      -0.379600
      8 C3           0.1310    -0.7080    -0.6680 c5         1 ENL      -0.181200
      9 C7          -1.1250    -1.4060    -0.1250 c          1 ENL       0.959600
     10 O4          -1.3460    -1.3020     1.0980 o          1 ENL      -0.853300
     11 O3          -1.8030    -2.0680    -0.9400 o          1 ENL      -0.853300
     12 C2           1.3860    -1.0430     0.1620 c5         1 ENL       0.133600
     13 C1           2.6400    -0.7230    -0.6670 c5         1 ENL      -0.116400
     14 H4           0.2660     1.2780    -1.5530 hc         1 ENL       0.008700
     15 H6           1.4210     2.0110     0.8360 h1         1 ENL       0.071700
     16 H5           2.5760     1.2990    -1.5730 hc         1 ENL       0.010200
     17 H5A          3.5520     1.1960    -0.1140 hc         1 ENL       0.010200
     18 H3           0.2800    -1.0150    -1.7060 hc         1 ENL       0.008700
     19 H2           1.3860    -2.0320     0.6210 h1         1 ENL       0.071700
     20 H1           2.5760    -1.1090    -1.6850 hc         1 ENL       0.010200
     21 H1A          3.5340    -1.1500    -0.2090 hc         1 ENL       0.010200
@<TRIPOS>BOND
     1     1     2 1   
     2     2     3 1   
     3     2     4 1   
     4     4     5 1   
     5     4     8 1   
     6     4    14 1   
     7     5     6 1   
     8     5     7 1   
     9     5    15 1   
    10     6    13 1   
    11     6    16 1   
    12     6    17 1   
    13     7    12 1   
    14     8     9 1   
    15     8    12 1   
    16     8    18 1   
    17     9    10 1   
    18     9    11 1   
    19    12    13 1   
    20    12    19 1   
    21    13    20 1   
    22    13    21 1   
@<TRIPOS>SUBSTRUCTURE
     1 ENL         1 TEMP              0 ****  ****    0 ROOT
