@<TRIPOS>MOLECULE
ENM
   68    72     1     0     0
SMALL
No Charge or Current Charge


@<TRIPOS>ATOM
      1 C23          5.9160    -0.6080     0.2800 ca         1 ENM      -0.150500
      2 C24          6.8640     0.1240     1.0130 ca         1 ENM       0.195000
      3 F2           7.7820    -0.5270     1.7590 f          1 ENM      -0.173500
      4 C25          6.8640     1.5250     0.9770 ca         1 ENM      -0.194000
      5 C26          5.9060     2.1940     0.2030 ca         1 ENM       0.195000
      6 F1           5.8990     3.5440     0.1660 f          1 ENM      -0.173500
      7 C27          4.9540     1.4710    -0.5340 ca         1 ENM      -0.150500
      8 C22          4.9530     0.0620    -0.5010 ca         1 ENM      -0.031300
      9 C21          3.9190    -0.7260    -1.2960 c3         1 ENM       0.204900
     10 O03          2.7480    -0.8960    -0.4820 os         1 ENM      -0.459000
     11 C20          1.6820    -1.6190    -1.1190 c3         1 ENM       0.157600
     12 C19          0.5100    -1.6990    -0.1120 c3         1 ENM      -0.059400
     13 C12         -0.8240    -2.4220    -0.5880 c5         1 ENM      -0.032000
     14 C13         -1.3590    -1.7560    -1.8920 c6         1 ENM      -0.062400
     15 C14         -1.8350    -0.2970    -1.6380 c6         1 ENM      -0.073400
     16 C10         -2.9330    -0.2120    -0.5180 c6         1 ENM      -0.047700
     17 C05         -3.4510     1.2590    -0.2450 c6         1 ENM      -0.033000
     18 C18         -2.2870     2.1930     0.2530 c3         1 ENM      -0.083100
     19 C06         -4.1030     1.8770    -1.5300 c6         1 ENM      -0.062400
     20 C01         -4.8620     3.2160    -1.2790 c6         1 ENM      -0.185400
     21 C02         -5.8660     3.1440    -0.1150 c          1 ENM       0.577100
     22 O02         -7.0190     3.5380    -0.2370 o          1 ENM      -0.523100
     23 C03         -5.3730     2.4850     1.1790 c6         1 ENM      -0.182400
     24 C04         -4.6160     1.1410     0.8640 c6         1 ENM      -0.047700
     25 C07         -4.1730     0.4250     2.1920 c6         1 ENM      -0.070400
     26 C08         -3.6150    -0.9800     1.8670 c6         1 ENM      -0.071400
     27 C09         -2.4730    -0.9400     0.8070 c6         1 ENM      -0.045700
     28 C11         -1.9840    -2.3790     0.4610 c5         1 ENM      -0.067700
     29 C15         -1.4380    -3.2770     1.6090 c5         1 ENM      -0.067400
     30 C16         -0.6560    -4.4020     0.8440 c5         1 ENM      -0.118400
     31 C17         -0.7330    -3.9890    -0.6630 c5         1 ENM       0.170300
     32 O01          0.3710    -4.4840    -1.4130 oh         1 ENM      -0.656000
     33 H23          5.9280    -1.6940     0.3220 ha         1 ENM       0.138000
     34 H25          7.5980     2.0870     1.5460 ha         1 ENM       0.149000
     35 H27          4.2160     2.0060    -1.1260 ha         1 ENM       0.138000
     36 H211         3.6750    -0.1820    -2.2180 h1         1 ENM       0.030700
     37 H212         4.3390    -1.7000    -1.5800 h1         1 ENM       0.030700
     38 H201         1.3630    -1.0930    -2.0280 h1         1 ENM       0.031700
     39 H202         2.0210    -2.6230    -1.3980 h1         1 ENM       0.031700
     40 H191         0.9080    -2.1780     0.7880 hc         1 ENM       0.053200
     41 H192         0.2930    -0.6720     0.1950 hc         1 ENM       0.053200
     42 H131        -0.6080    -1.7830    -2.6910 hc         1 ENM       0.044700
     43 H132        -2.2080    -2.3380    -2.2770 hc         1 ENM       0.044700
     44 H141        -0.9750     0.3360    -1.3920 hc         1 ENM       0.042700
     45 H142        -2.2330     0.0960    -2.5820 hc         1 ENM       0.042700
     46 H10         -3.7930    -0.7820    -0.9000 hc         1 ENM       0.042700
     47 H181        -1.5350     2.3520    -0.5270 hc         1 ENM       0.035033
     48 H182        -2.6420     3.1860     0.5430 hc         1 ENM       0.035033
     49 H183        -1.7680     1.7920     1.1290 hc         1 ENM       0.035033
     50 H061        -3.3390     2.0530    -2.2990 hc         1 ENM       0.045700
     51 H062        -4.8080     1.1550    -1.9650 hc         1 ENM       0.045700
     52 H011        -4.1040     3.9530    -0.9870 hc         1 ENM       0.066200
     53 H012        -5.3630     3.5810    -2.1850 hc         1 ENM       0.066200
     54 H031        -4.6380     3.1650     1.6270 hc         1 ENM       0.067200
     55 H032        -6.2090     2.3510     1.8790 hc         1 ENM       0.067200
     56 H04         -5.3840     0.4860     0.4270 hc         1 ENM       0.049700
     57 H071        -3.4140     1.0230     2.7150 hc         1 ENM       0.043200
     58 H072        -5.0260     0.3320     2.8770 hc         1 ENM       0.043200
     59 H081        -3.2520    -1.4410     2.7960 hc         1 ENM       0.041200
     60 H082        -4.4330    -1.6190     1.5070 hc         1 ENM       0.041200
     61 H09         -1.6340    -0.3960     1.2550 hc         1 ENM       0.056700
     62 H11         -2.8810    -2.8600     0.0470 hc         1 ENM       0.044700
     63 H151        -0.7820    -2.7210     2.2880 hc         1 ENM       0.046700
     64 H152        -2.2480    -3.6890     2.2220 hc         1 ENM       0.046700
     65 H161         0.3790    -4.4650     1.1990 hc         1 ENM       0.049200
     66 H162        -1.1040    -5.3890     1.0060 hc         1 ENM       0.049200
     67 H17         -1.6600    -4.3900    -1.0980 h1         1 ENM       0.028700
     68 HO01         0.3320    -5.4640    -1.3580 ho         1 ENM       0.444000
@<TRIPOS>BOND
     1     1     2 ar  
     2     1     8 ar  
     3     1    33 1   
     4     2     3 1   
     5     2     4 ar  
     6     4     5 ar  
     7     4    34 1   
     8     5     6 1   
     9     5     7 ar  
    10     7     8 ar  
    11     7    35 1   
    12     8     9 1   
    13     9    10 1   
    14     9    36 1   
    15     9    37 1   
    16    10    11 1   
    17    11    12 1   
    18    11    38 1   
    19    11    39 1   
    20    12    13 1   
    21    12    40 1   
    22    12    41 1   
    23    13    14 1   
    24    13    28 1   
    25    13    31 1   
    26    14    15 1   
    27    14    42 1   
    28    14    43 1   
    29    15    16 1   
    30    15    44 1   
    31    15    45 1   
    32    16    17 1   
    33    16    27 1   
    34    16    46 1   
    35    17    18 1   
    36    17    19 1   
    37    17    24 1   
    38    18    47 1   
    39    18    48 1   
    40    18    49 1   
    41    19    20 1   
    42    19    50 1   
    43    19    51 1   
    44    20    21 1   
    45    20    52 1   
    46    20    53 1   
    47    21    22 2   
    48    21    23 1   
    49    23    24 1   
    50    23    54 1   
    51    23    55 1   
    52    24    25 1   
    53    24    56 1   
    54    25    26 1   
    55    25    57 1   
    56    25    58 1   
    57    26    27 1   
    58    26    59 1   
    59    26    60 1   
    60    27    28 1   
    61    27    61 1   
    62    28    29 1   
    63    28    62 1   
    64    29    30 1   
    65    29    63 1   
    66    29    64 1   
    67    30    31 1   
    68    30    65 1   
    69    30    66 1   
    70    31    32 1   
    71    31    67 1   
    72    32    68 1   
@<TRIPOS>SUBSTRUCTURE
     1 ENM         1 TEMP              0 ****  ****    0 ROOT
