@<TRIPOS>MOLECULE
ENM
   68    72     1     0     0
SMALL
bcc


@<TRIPOS>ATOM
      1 C23          5.7000    -0.5980     0.1380 ca         1 ENM      -0.168500
      2 C24          6.6640     0.0560     0.8800 ca         1 ENM       0.159900
      3 F2           7.5840    -0.6680     1.5310 f          1 ENM      -0.138400
      4 C25          6.7240     1.4330     0.9800 ca         1 ENM      -0.212000
      5 C26          5.7610     2.1500     0.2960 ca         1 ENM       0.159900
      6 F1           5.7920     3.4870     0.3720 f          1 ENM      -0.138400
      7 C27          4.7750     1.5460    -0.4590 ca         1 ENM      -0.168500
      8 C22          4.7500     0.1580    -0.5410 ca         1 ENM      -0.031300
      9 C21          3.6640    -0.5310    -1.3160 c3         1 ENM       0.181700
     10 O03          2.6150    -0.8300    -0.4290 os         1 ENM      -0.412600
     11 C20          1.5390    -1.4820    -1.0750 c3         1 ENM       0.134400
     12 C19          0.4570    -1.7370    -0.0400 c3         1 ENM      -0.059400
     13 C12         -0.8240    -2.4290    -0.5580 c5         1 ENM      -0.032000
     14 C13         -1.3500    -1.7870    -1.8380 c6         1 ENM      -0.062400
     15 C14         -1.7970    -0.3470    -1.5780 c6         1 ENM      -0.073400
     16 C10         -2.8620    -0.2480    -0.4780 c6         1 ENM      -0.047700
     17 C05         -3.3730     1.1940    -0.2200 c6         1 ENM      -0.033000
     18 C18         -2.2390     2.1000     0.2720 c3         1 ENM      -0.083100
     19 C06         -3.9680     1.7750    -1.5120 c6         1 ENM      -0.062400
     20 C01         -4.6660     3.1250    -1.3180 c6         1 ENM      -0.185400
     21 C02         -5.6680     3.1060    -0.1950 c          1 ENM       0.577100
     22 O02         -6.7770     3.5860    -0.3020 o          1 ENM      -0.523100
     23 C03         -5.1830     2.4620     1.0740 c6         1 ENM      -0.182400
     24 C04         -4.5200     1.1050     0.8120 c6         1 ENM      -0.047700
     25 C07         -4.0830     0.4440     2.1130 c6         1 ENM      -0.070400
     26 C08         -3.5340    -0.9520     1.8530 c6         1 ENM      -0.071400
     27 C09         -2.4090    -0.9440     0.8230 c6         1 ENM      -0.045700
     28 C11         -1.9540    -2.3550     0.4870 c5         1 ENM      -0.067700
     29 C15         -1.4880    -3.2810     1.6140 c5         1 ENM      -0.067400
     30 C16         -0.6880    -4.3800     0.8780 c5         1 ENM      -0.118400
     31 C17         -0.6600    -3.9520    -0.6050 c5         1 ENM       0.147100
     32 O01          0.4870    -4.3630    -1.3090 oh         1 ENM      -0.593800
     33 H23          5.6950    -1.6790     0.0840 ha         1 ENM       0.156000
     34 H25          7.4910     1.9270     1.5630 ha         1 ENM       0.167000
     35 H27          4.0420     2.1470    -0.9810 ha         1 ENM       0.156000
     36 H211         3.3150     0.1150    -2.1330 h1         1 ENM       0.030700
     37 H212         4.0570    -1.4460    -1.7790 h1         1 ENM       0.030700
     38 H201         1.1580    -0.8470    -1.8860 h1         1 ENM       0.031700
     39 H202         1.8830    -2.4150    -1.5340 h1         1 ENM       0.031700
     40 H191         0.8890    -2.3230     0.7760 hc         1 ENM       0.053200
     41 H192         0.1970    -0.7690     0.3930 hc         1 ENM       0.053200
     42 H131        -0.6180    -1.8130    -2.6490 hc         1 ENM       0.044700
     43 H132        -2.2100    -2.3700    -2.1870 hc         1 ENM       0.044700
     44 H141        -0.9270     0.2630    -1.3160 hc         1 ENM       0.042700
     45 H142        -2.1840     0.0690    -2.5100 hc         1 ENM       0.042700
     46 H10         -3.7330    -0.8220    -0.8350 hc         1 ENM       0.042700
     47 H181        -1.4520     2.1860    -0.4790 hc         1 ENM       0.035033
     48 H182        -2.5830     3.1130     0.4810 hc         1 ENM       0.035033
     49 H183        -1.7740     1.7330     1.1860 hc         1 ENM       0.035033
     50 H061        -3.1930     1.9050    -2.2700 hc         1 ENM       0.045700
     51 H062        -4.6880     1.0610    -1.9260 hc         1 ENM       0.045700
     52 H011        -3.9220     3.8930    -1.0770 hc         1 ENM       0.066200
     53 H012        -5.1530     3.4420    -2.2410 hc         1 ENM       0.066200
     54 H031        -4.4650     3.1420     1.5480 hc         1 ENM       0.067200
     55 H032        -6.0180     2.3520     1.7700 hc         1 ENM       0.067200
     56 H04         -5.2850     0.4540     0.3650 hc         1 ENM       0.049700
     57 H071        -3.3320     1.0640     2.6140 hc         1 ENM       0.043200
     58 H072        -4.9340     0.3880     2.7980 hc         1 ENM       0.043200
     59 H081        -3.1830    -1.3940     2.7890 hc         1 ENM       0.041200
     60 H082        -4.3480    -1.5910     1.4900 hc         1 ENM       0.041200
     61 H09         -1.5690    -0.3890     1.2580 hc         1 ENM       0.056700
     62 H11         -2.8230    -2.8460     0.0210 hc         1 ENM       0.044700
     63 H151        -0.8600    -2.7440     2.3300 hc         1 ENM       0.046700
     64 H152        -2.3280    -3.6890     2.1770 hc         1 ENM       0.046700
     65 H161         0.3330    -4.4510     1.2600 hc         1 ENM       0.049200
     66 H162        -1.1370    -5.3670     0.9970 hc         1 ENM       0.049200
     67 H17         -1.5580    -4.3540    -1.0990 h1         1 ENM       0.028700
     68 HO01         0.5290    -5.3240    -1.2770 ho         1 ENM       0.405000
@<TRIPOS>BOND
     1     1     2 ar  
     2     1     8 ar  
     3     1    33 1   
     4     2     3 1   
     5     2     4 ar  
     6     4     5 ar  
     7     4    34 1   
     8     5     6 1   
     9     5     7 ar  
    10     7     8 ar  
    11     7    35 1   
    12     8     9 1   
    13     9    10 1   
    14     9    36 1   
    15     9    37 1   
    16    10    11 1   
    17    11    12 1   
    18    11    38 1   
    19    11    39 1   
    20    12    13 1   
    21    12    40 1   
    22    12    41 1   
    23    13    14 1   
    24    13    28 1   
    25    13    31 1   
    26    14    15 1   
    27    14    42 1   
    28    14    43 1   
    29    15    16 1   
    30    15    44 1   
    31    15    45 1   
    32    16    17 1   
    33    16    27 1   
    34    16    46 1   
    35    17    18 1   
    36    17    19 1   
    37    17    24 1   
    38    18    47 1   
    39    18    48 1   
    40    18    49 1   
    41    19    20 1   
    42    19    50 1   
    43    19    51 1   
    44    20    21 1   
    45    20    52 1   
    46    20    53 1   
    47    21    22 2   
    48    21    23 1   
    49    23    24 1   
    50    23    54 1   
    51    23    55 1   
    52    24    25 1   
    53    24    56 1   
    54    25    26 1   
    55    25    57 1   
    56    25    58 1   
    57    26    27 1   
    58    26    59 1   
    59    26    60 1   
    60    27    28 1   
    61    27    61 1   
    62    28    29 1   
    63    28    62 1   
    64    29    30 1   
    65    29    63 1   
    66    29    64 1   
    67    30    31 1   
    68    30    65 1   
    69    30    66 1   
    70    31    32 1   
    71    31    67 1   
    72    32    68 1   
@<TRIPOS>SUBSTRUCTURE
     1 ENM         1 TEMP              0 ****  ****    0 ROOT
