@<TRIPOS>MOLECULE
ENN
   33    33     1     0     0
SMALL
No Charge or Current Charge


@<TRIPOS>ATOM
      1 C5          -0.2000    -0.2270     0.2420 ca         1 ENN       0.013000
      2 C4           0.3570     1.0630     0.0630 ca         1 ENN      -0.170600
      3 C6          -1.5810    -0.4600     0.0580 ca         1 ENN      -0.271500
      4 C2          -1.8770     1.8900    -0.4750 ca         1 ENN      -0.135000
      5 O14          2.3080     2.3200     0.7130 o          1 ENN      -0.576100
      6 C13          1.8370     1.2790     0.2780 c          1 ENN       0.615700
      7 N15          2.6450     0.1920     0.0220 ns         1 ENN      -0.499900
      8 C16          4.0960     0.1810     0.2110 c3         1 ENN       0.101000
      9 C17          4.7010    -1.1920    -0.1340 c3         1 ENN      -0.096400
     10 C18          6.2330    -1.2380     0.0570 c3         1 ENN      -0.072400
     11 C19          6.8430    -2.6110    -0.2870 c3         1 ENN      -0.089100
     12 C3          -0.5070     2.1240    -0.2990 ca         1 ENN       0.210000
     13 Cl1          0.0670     3.7650    -0.6110 cl         1 ENN      -0.149000
     14 C1          -2.4230     0.6130    -0.2980 ca         1 ENN       0.233000
     15 Cl2         -4.1660     0.4430    -0.5190 cl         1 ENN      -0.145000
     16 S7          -2.2200    -2.1200     0.3050 sy         1 ENN       1.156600
     17 O9          -3.2100    -2.4670    -0.7100 o          1 ENN      -0.540500
     18 O10         -1.1480    -3.0400     0.6760 o          1 ENN      -0.540500
     19 N8          -3.1060    -1.9900     1.6650 n8         1 ENN      -1.028100
     20 H1           0.4390    -1.0530     0.5510 ha         1 ENN       0.153000
     21 H2          -2.5280     2.7130    -0.7570 ha         1 ENN       0.151000
     22 H3           2.2030    -0.6310    -0.3670 hn         1 ENN       0.319500
     23 H4           4.5430     0.9530    -0.4290 h1         1 ENN       0.054200
     24 H5           4.3190     0.4290     1.2580 h1         1 ENN       0.054200
     25 H6           4.2350    -1.9600     0.4970 hc         1 ENN       0.045200
     26 H7           4.4600    -1.4400    -1.1760 hc         1 ENN       0.045200
     27 H8           6.7020    -0.4720    -0.5720 hc         1 ENN       0.041700
     28 H9           6.4770    -0.9910     1.0980 hc         1 ENN       0.041700
     29 H10          6.4190    -3.3960     0.3520 hc         1 ENN       0.034367
     30 H11          6.6460    -2.8720    -1.3340 hc         1 ENN       0.034367
     31 H12          7.9290    -2.5950    -0.1360 hc         1 ENN       0.034367
     32 H13         -2.7660    -2.8000     2.1780 hn         1 ENN       0.488000
     33 H14         -4.0040    -2.3200     1.3200 hn         1 ENN       0.488000
@<TRIPOS>BOND
     1     1     2 ar  
     2     1     3 ar  
     3     1    20 1   
     4     2     6 1   
     5     2    12 ar  
     6     3    14 ar  
     7     3    16 1   
     8     4    12 ar  
     9     4    14 ar  
    10     4    21 1   
    11     5     6 2   
    12     6     7 1   
    13     7     8 1   
    14     7    22 1   
    15     8     9 1   
    16     8    23 1   
    17     8    24 1   
    18     9    10 1   
    19     9    25 1   
    20     9    26 1   
    21    10    11 1   
    22    10    27 1   
    23    10    28 1   
    24    11    29 1   
    25    11    30 1   
    26    11    31 1   
    27    12    13 1   
    28    14    15 1   
    29    16    17 2   
    30    16    18 2   
    31    16    19 1   
    32    19    32 1   
    33    19    33 1   
@<TRIPOS>SUBSTRUCTURE
     1 ENN         1 TEMP              0 ****  ****    0 ROOT
