@<TRIPOS>MOLECULE
ENN
   33    33     1     0     0
SMALL
abcg2


@<TRIPOS>ATOM
      1 C5          -0.2330    -0.3460     0.3550 ca         1 ENN       0.013000
      2 C4           0.3790     0.8830     0.1500 ca         1 ENN      -0.170600
      3 C6          -1.5830    -0.5310     0.1040 ca         1 ENN      -0.271500
      4 C2          -1.7440     1.7610    -0.6070 ca         1 ENN      -0.135000
      5 O14          2.1630     1.9340     1.3080 o          1 ENN      -0.576100
      6 C13          1.8210     1.0650     0.5240 c          1 ENN       0.615700
      7 N15          2.6550     0.1850    -0.0390 ns         1 ENN      -0.499900
      8 C16          4.0810     0.1730     0.2240 c3         1 ENN       0.101000
      9 C17          4.7020    -1.1430    -0.2120 c3         1 ENN      -0.096400
     10 C18          6.2050    -1.1710     0.0360 c3         1 ENN      -0.072400
     11 C19          6.8420    -2.4830    -0.3980 c3         1 ENN      -0.089100
     12 C3          -0.3960     1.9300    -0.3360 ca         1 ENN       0.210000
     13 CL1          0.3050     3.4660    -0.6660 cl         1 ENN      -0.149000
     14 C1          -2.3400     0.5320    -0.3800 ca         1 ENN       0.233000
     15 CL2         -4.0190     0.3860    -0.7060 cl         1 ENN      -0.145000
     16 S7          -2.2820    -2.1450     0.3820 sy         1 ENN       1.156600
     17 O9          -3.0330    -2.5440    -0.7940 o          1 ENN      -0.540500
     18 O10         -1.1940    -2.9910     0.8430 o          1 ENN      -0.540500
     19 N8          -3.3660    -1.8380     1.5730 n8         1 ENN      -1.028100
     20 H1           0.3550    -1.1690     0.7390 ha         1 ENN       0.153000
     21 H2          -2.3300     2.5830    -0.9940 ha         1 ENN       0.151000
     22 H3           2.3040    -0.4150    -0.7700 hn         1 ENN       0.319500
     23 H4           4.5670     1.0060    -0.2940 h1         1 ENN       0.054200
     24 H5           4.2410     0.3250     1.2930 h1         1 ENN       0.054200
     25 H6           4.2230    -1.9680     0.3250 hc         1 ENN       0.045200
     26 H7           4.5080    -1.3080    -1.2780 hc         1 ENN       0.045200
     27 H8           6.6750    -0.3390    -0.4960 hc         1 ENN       0.041700
     28 H9           6.3990    -1.0010     1.0990 hc         1 ENN       0.041700
     29 H10          6.4030    -3.3290     0.1340 hc         1 ENN       0.034367
     30 H11          6.6980    -2.6550    -1.4670 hc         1 ENN       0.034367
     31 H12          7.9140    -2.4890    -0.2040 hc         1 ENN       0.034367
     32 H13         -2.9750    -1.8950     2.5070 hn         1 ENN       0.488000
     33 H14         -4.2200    -2.3770     1.4830 hn         1 ENN       0.488000
@<TRIPOS>BOND
     1     1     2 ar  
     2     1     3 ar  
     3     1    20 1   
     4     2     6 1   
     5     2    12 ar  
     6     3    14 ar  
     7     3    16 1   
     8     4    12 ar  
     9     4    14 ar  
    10     4    21 1   
    11     5     6 2   
    12     6     7 1   
    13     7     8 1   
    14     7    22 1   
    15     8     9 1   
    16     8    23 1   
    17     8    24 1   
    18     9    10 1   
    19     9    25 1   
    20     9    26 1   
    21    10    11 1   
    22    10    27 1   
    23    10    28 1   
    24    11    29 1   
    25    11    30 1   
    26    11    31 1   
    27    12    13 1   
    28    14    15 1   
    29    16    17 2   
    30    16    18 2   
    31    16    19 1   
    32    19    32 1   
    33    19    33 1   
@<TRIPOS>SUBSTRUCTURE
     1 ENN         1 TEMP              0 ****  ****    0 ROOT
