@<TRIPOS>MOLECULE
ENO
   20    20     1     0     0
SMALL
No Charge or Current Charge


@<TRIPOS>ATOM
      1 O4           0.8220    -1.5540     1.8950 o          1 ENO      -0.551100
      2 C9          -0.4030    -1.3090    -1.3850 ca         1 ENO      -0.071500
      3 C8           0.0000    -1.0280    -2.7030 ca         1 ENO      -0.176500
      4 C7           0.0880     0.3030    -3.1400 ca         1 ENO       0.106100
      5 C6          -0.2270     1.3520    -2.2640 ca         1 ENO      -0.176500
      6 C5          -0.6310     1.0730    -0.9460 ca         1 ENO      -0.071500
      7 C4          -0.7220    -0.2600    -0.5000 ca         1 ENO      -0.063300
      8 C3          -1.1560    -0.5630     0.9290 c3         1 ENO      -0.157100
      9 C2           0.0630    -0.5800     1.8720 c          1 ENO       0.428100
     10 C1           0.3020     0.7260     2.8000 c          1 ENO       0.649000
     11 O2          -0.6760     1.3010     3.2710 o          1 ENO      -0.695000
     12 O1           1.4580     1.0840     3.0210 o          1 ENO      -0.695000
     13 H9          -0.4660    -2.3430    -1.0510 ha         1 ENO       0.111500
     14 H8           0.2440    -1.8470    -3.3750 ha         1 ENO       0.104000
     15 H6          -0.1580     2.3830    -2.6020 ha         1 ENO       0.104000
     16 H5          -0.8720     1.8930    -0.2730 ha         1 ENO       0.111500
     17 HO3          0.6550    -0.2670    -4.8760 ho         1 ENO       0.451000
     18 H31         -1.6440    -1.5430     0.9670 hc         1 ENO       0.071700
     19 H32         -1.8670     0.2050     1.2540 hc         1 ENO       0.071700
     20 O3           0.4780     0.5810    -4.4150 oh         1 ENO      -0.550100
@<TRIPOS>BOND
     1     1     9 2   
     2     2     3 ar  
     3     2     7 ar  
     4     2    13 1   
     5     3     4 ar  
     6     3    14 1   
     7     4     5 ar  
     8     4    20 1   
     9     5     6 ar  
    10     5    15 1   
    11     6     7 ar  
    12     6    16 1   
    13     7     8 1   
    14     8     9 1   
    15     8    18 1   
    16     8    19 1   
    17     9    10 1   
    18    10    11 1   
    19    10    12 1   
    20    17    20 1   
@<TRIPOS>SUBSTRUCTURE
     1 ENO         1 TEMP              0 ****  ****    0 ROOT
