@<TRIPOS>MOLECULE
ENO
   20    20     1     0     0
SMALL
bcc


@<TRIPOS>ATOM
      1 O4           1.3960    -0.0180     1.3440 o          1 ENO      -0.551100
      2 C9          -0.4720    -1.1710    -1.2960 ca         1 ENO      -0.089500
      3 C8          -0.1480    -1.1440    -2.6450 ca         1 ENO      -0.194500
      4 C7           0.0300     0.0750    -3.2920 ca         1 ENO       0.106100
      5 C6          -0.1220     1.2570    -2.5720 ca         1 ENO      -0.194500
      6 C5          -0.4460     1.2090    -1.2260 ca         1 ENO      -0.089500
      7 C4          -0.6300    -0.0010    -0.5610 ca         1 ENO      -0.063300
      8 C3          -0.9500    -0.0380     0.9010 c3         1 ENO      -0.157100
      9 C2           0.2750    -0.0210     1.7910 c          1 ENO       0.428100
     10 C1           0.0240    -0.0100     3.3270 c          1 ENO       0.859600
     11 O2          -1.1540    -0.1990     3.6750 o          1 ENO      -0.800300
     12 O1           1.0220     0.1850     4.0320 o          1 ENO      -0.800300
     13 H9          -0.6130    -2.1310    -0.8120 ha         1 ENO       0.129500
     14 H8          -0.0350    -2.0750    -3.1900 ha         1 ENO       0.122000
     15 H6           0.0140     2.2110    -3.0680 ha         1 ENO       0.122000
     16 H5          -0.5660     2.1400    -0.6840 ha         1 ENO       0.129500
     17 HO3          0.4400    -0.7100    -4.9860 ho         1 ENO       0.412000
     18 H31         -1.5340    -0.9260     1.1560 hc         1 ENO       0.071700
     19 H32         -1.5850     0.8060     1.1870 hc         1 ENO       0.071700
     20 O3           0.3440     0.1680    -4.6030 oh         1 ENO      -0.511100
@<TRIPOS>BOND
     1     1     9 2   
     2     2     3 ar  
     3     2     7 ar  
     4     2    13 1   
     5     3     4 ar  
     6     3    14 1   
     7     4     5 ar  
     8     4    20 1   
     9     5     6 ar  
    10     5    15 1   
    11     6     7 ar  
    12     6    16 1   
    13     7     8 1   
    14     8     9 1   
    15     8    18 1   
    16     8    19 1   
    17     9    10 1   
    18    10    11 1   
    19    10    12 1   
    20    17    20 1   
@<TRIPOS>SUBSTRUCTURE
     1 ENO         1 TEMP              0 ****  ****    0 ROOT
