@<TRIPOS>MOLECULE
ENR
   64    67     1     0     0
SMALL
bcc


@<TRIPOS>ATOM
      1 C10         -1.0470    26.7300    11.1820 c3         1 ENR       0.146300
      2 C13          1.9430    24.7050    12.3170 ca         1 ENR      -0.032000
      3 C17          1.4580    22.8140    16.1040 c3         1 ENR      -0.068100
      4 C20          1.0540    25.8720    14.2360 ca         1 ENR      -0.032000
      5 C21          0.0560    26.4080    13.4390 ca         1 ENR      -0.137000
      6 C24         -5.4940    28.4100    14.2880 ca         1 ENR      -0.178000
      7 C26         -8.6190    24.7050    13.2760 ca         1 ENR      -0.115000
      8 C01         -7.9570    28.7560    17.0690 c3         1 ENR      -0.118100
      9 C02         -8.2360    29.0080    15.5960 c3         1 ENR       0.053300
     10 C04         -6.6530    27.6400    14.2290 ca         1 ENR       0.030800
     11 C05         -6.6690    26.3990    13.5530 cp         1 ENR      -0.108000
     12 C06         -5.5250    25.9380    12.9230 ca         1 ENR      -0.002000
     13 C07         -4.3720    26.7140    12.9460 ca         1 ENR      -0.203600
     14 C08         -3.1640    26.1940    12.2570 c          1 ENR       0.683700
     15 C11         -0.0130    26.1030    12.0840 ca         1 ENR      -0.031300
     16 C12          0.9360    25.2450    11.5370 ca         1 ENR      -0.137000
     17 C14          1.9920    25.0210    13.6690 ca         1 ENR      -0.266500
     18 C16          2.6480    22.7270    15.1710 c3         1 ENR      -0.179600
     19 C23         -4.3710    27.9360    13.6390 ca         1 ENR      -0.073000
     20 C25         -7.9990    25.8680    13.7100 cp         1 ENR      -0.041000
     21 C27         -9.9480    24.4770    13.6120 ca         1 ENR       0.124100
     22 C29        -11.8640    23.0370    13.3170 c3         1 ENR       0.158100
     23 C30        -12.0260    21.5450    13.1010 c3         1 ENR      -0.107600
     24 C31        -12.6840    23.8460    12.3240 c3         1 ENR      -0.107600
     25 C32        -10.6450    25.4260    14.3760 ca         1 ENR      -0.183000
     26 C33        -10.0360    26.5940    14.8090 ca         1 ENR      -0.119000
     27 C34         -8.7100    26.8140    14.4700 ca         1 ENR      -0.040200
     28 N03         -7.8870    27.8860    14.7570 na         1 ENR      -0.063300
     29 N09         -2.2600    27.1130    11.8540 ns         1 ENR      -0.579900
     30 O18          4.4470    24.1030    13.8210 o          1 ENR      -0.596800
     31 O19          3.4240    25.1610    15.8660 o          1 ENR      -0.596800
     32 O22         -2.9890    24.9990    12.0600 o          1 ENR      -0.596100
     33 O28        -10.4720    23.3070    13.1820 os         1 ENR      -0.331900
     34 S15          3.2790    24.3310    14.6710 sy         1 ENR       1.072300
     35 H102        -1.2630    26.0570    10.3500 h1         1 ENR       0.059200
     36 H101        -0.6240    27.6350    10.7450 h1         1 ENR       0.059200
     37 H131         2.6780    24.0520    11.8680 ha         1 ENR       0.153500
     38 H171         1.1450    21.8060    16.3700 hc         1 ENR       0.050033
     39 H173         1.7100    23.3390    17.0230 hc         1 ENR       0.050033
     40 H172         0.6070    23.3080    15.6390 hc         1 ENR       0.050033
     41 H201         1.0980    26.1270    15.2860 ha         1 ENR       0.153500
     42 H211        -0.6710    27.0730    13.8870 ha         1 ENR       0.138000
     43 H241        -5.4510    29.3440    14.8320 ha         1 ENR       0.138000
     44 H261        -8.0830    23.9710    12.6870 ha         1 ENR       0.152000
     45 H012        -8.2320    29.6310    17.6570 hc         1 ENR       0.047700
     46 H011        -8.5320    27.9070    17.4400 hc         1 ENR       0.047700
     47 H013        -6.9010    28.5510    17.2410 hc         1 ENR       0.047700
     48 H022        -7.6860    29.8820    15.2450 h1         1 ENR       0.055700
     49 H021        -9.2890    29.2390    15.4380 h1         1 ENR       0.055700
     50 H061        -5.5260    24.9880    12.4050 ha         1 ENR       0.157000
     51 H121         0.8970    24.9970    10.4840 ha         1 ENR       0.138000
     52 H161         2.4180    22.1820    14.2550 h1         1 ENR       0.098200
     53 H162         3.4980    22.2340    15.6470 h1         1 ENR       0.098200
     54 H231        -3.4660    28.5260    13.7100 ha         1 ENR       0.125000
     55 H291       -12.1900    23.2670    14.3380 h1         1 ENR       0.037700
     56 H302       -11.4390    20.9750    13.8210 hc         1 ENR       0.046367
     57 H303       -13.0710    21.2630    13.2290 hc         1 ENR       0.046367
     58 H301       -11.7210    21.2530    12.0960 hc         1 ENR       0.046367
     59 H313       -13.7450    23.6320    12.4560 hc         1 ENR       0.046367
     60 H311       -12.5520    24.9200    12.4510 hc         1 ENR       0.046367
     61 H312       -12.4130    23.5900    11.2990 hc         1 ENR       0.046367
     62 H321       -11.6780    25.2700    14.6520 ha         1 ENR       0.134000
     63 H331       -10.6050    27.3000    15.3990 ha         1 ENR       0.134000
     64 H091        -2.5070    28.0870    11.8520 hn         1 ENR       0.319500
@<TRIPOS>BOND
     1     1    15 1   
     2     1    29 1   
     3     1    35 1   
     4     1    36 1   
     5     2    16 ar  
     6     2    17 ar  
     7     2    37 1   
     8     3    18 1   
     9     3    38 1   
    10     3    39 1   
    11     3    40 1   
    12     4     5 ar  
    13     4    17 ar  
    14     4    41 1   
    15     5    15 ar  
    16     5    42 1   
    17     6    10 ar  
    18     6    19 ar  
    19     6    43 1   
    20     7    20 ar  
    21     7    21 ar  
    22     7    44 1   
    23     8     9 1   
    24     8    45 1   
    25     8    46 1   
    26     8    47 1   
    27     9    28 1   
    28     9    48 1   
    29     9    49 1   
    30    10    11 ar  
    31    10    28 1   
    32    11    12 ar  
    33    11    20 1   
    34    12    13 ar  
    35    12    50 1   
    36    13    14 1   
    37    13    19 ar  
    38    14    29 1   
    39    14    32 2   
    40    15    16 ar  
    41    16    51 1   
    42    17    34 1   
    43    18    34 1   
    44    18    52 1   
    45    18    53 1   
    46    19    54 1   
    47    20    27 ar  
    48    21    25 ar  
    49    21    33 1   
    50    22    23 1   
    51    22    24 1   
    52    22    33 1   
    53    22    55 1   
    54    23    56 1   
    55    23    57 1   
    56    23    58 1   
    57    24    59 1   
    58    24    60 1   
    59    24    61 1   
    60    25    26 ar  
    61    25    62 1   
    62    26    27 ar  
    63    26    63 1   
    64    27    28 1   
    65    29    64 1   
    66    30    34 2   
    67    31    34 2   
@<TRIPOS>SUBSTRUCTURE
     1 ENR         1 TEMP              0 ****  ****    0 ROOT
