@<TRIPOS>MOLECULE
ENR
   64    67     1     0     0
SMALL
No Charge or Current Charge


@<TRIPOS>ATOM
      1 C10         -0.8840    27.0220    11.1270 c3         1 ENR       0.146300
      2 C13          0.9900    23.9980    12.5650 ca         1 ENR      -0.014000
      3 C17          1.4590    24.2370    16.6730 c3         1 ENR      -0.068100
      4 C20          1.9010    26.0240    13.5700 ca         1 ENR      -0.014000
      5 C21          1.0010    26.7970    12.8170 ca         1 ENR      -0.119000
      6 C24         -5.4410    28.4050    14.3560 ca         1 ENR      -0.160000
      7 C26         -8.5800    24.7220    13.1260 ca         1 ENR      -0.097000
      8 C01         -7.7520    28.3220    17.3870 c3         1 ENR      -0.118100
      9 C02         -8.1480    28.7170    15.9530 c3         1 ENR       0.082600
     10 C04         -6.5830    27.6020    14.2990 ca         1 ENR       0.030800
     11 C05         -6.6720    26.4750    13.4900 cp         1 ENR      -0.108000
     12 C06         -5.5850    26.1020    12.6770 ca         1 ENR       0.016000
     13 C07         -4.4040    26.8920    12.6970 ca         1 ENR      -0.203600
     14 C08         -3.2430    26.4800    11.8200 c          1 ENR       0.616700
     15 C11          0.0940    26.1800    11.9350 ca         1 ENR      -0.031300
     16 C12          0.0930    24.7780    11.8150 ca         1 ENR      -0.119000
     17 C14          1.8990    24.6190    13.4460 ca         1 ENR      -0.266500
     18 C16          2.0320    23.0730    15.8270 c3         1 ENR      -0.290400
     19 C23         -4.3460    28.0410    13.5440 ca         1 ENR      -0.055000
     20 C25         -7.9870    25.8690    13.6860 cp         1 ENR      -0.041000
     21 C27         -9.8900    24.3710    13.5200 ca         1 ENR       0.124100
     22 C29        -11.8240    22.8650    13.0850 c3         1 ENR       0.181300
     23 C30        -11.9350    21.4000    12.6230 c3         1 ENR      -0.107600
     24 C31        -12.6730    23.8160    12.2130 c3         1 ENR      -0.107600
     25 C32        -10.5850    25.1630    14.4810 ca         1 ENR      -0.165000
     26 C33         -9.9830    26.3120    15.0400 ca         1 ENR      -0.101000
     27 C34         -8.6890    26.6320    14.6150 ca         1 ENR      -0.040200
     28 N03         -7.8180    27.6760    14.9640 na         1 ENR      -0.092600
     29 N09         -2.1210    27.2750    11.8700 ns         1 ENR      -0.512900
     30 O18          3.3610    22.4010    13.6560 o          1 ENR      -0.526000
     31 O19          4.1010    24.4770    14.9550 o          1 ENR      -0.526000
     32 O22         -3.2930    25.4930    11.1000 o          1 ENR      -0.596100
     33 O28        -10.4370    23.2340    12.9530 os         1 ENR      -0.355100
     34 S15          3.0380    23.6130    14.4210 sy         1 ENR       1.041500
     35 H102        -1.1170    26.5180    10.1790 h1         1 ENR       0.059200
     36 H101        -0.4210    27.9860    10.8800 h1         1 ENR       0.059200
     37 H131         0.9710    22.9140    12.4610 ha         1 ENR       0.135500
     38 H171         0.8830    23.8430    17.5200 hc         1 ENR       0.050033
     39 H173         2.2630    24.8660    17.0750 hc         1 ENR       0.050033
     40 H172         0.7890    24.8680    16.0760 hc         1 ENR       0.050033
     41 H201         2.5920    26.5210    14.2490 ha         1 ENR       0.135500
     42 H211         1.0080    27.8800    12.9220 ha         1 ENR       0.120000
     43 H241        -5.3930    29.2790    15.0010 ha         1 ENR       0.120000
     44 H261        -8.0420    24.1170    12.4020 ha         1 ENR       0.134000
     45 H012        -8.0150    29.1220    18.0890 hc         1 ENR       0.047700
     46 H011        -8.2740    27.4080    17.6940 hc         1 ENR       0.047700
     47 H013        -6.6720    28.1450    17.4540 hc         1 ENR       0.047700
     48 H022        -7.6360    29.6470    15.6760 h1         1 ENR       0.055700
     49 H021        -9.2270    28.9150    15.9140 h1         1 ENR       0.055700
     50 H061        -5.6610    25.2190    12.0470 ha         1 ENR       0.139000
     51 H121        -0.6080    24.2900    11.1420 ha         1 ENR       0.120000
     52 H161         1.2160    22.4660    15.4190 h1         1 ENR       0.098200
     53 H162         2.6730    22.4350    16.4460 h1         1 ENR       0.098200
     54 H231        -3.4560    28.6650    13.5850 ha         1 ENR       0.107000
     55 H291       -12.1520    22.9150    14.1310 h1         1 ENR       0.037700
     56 H302       -11.3150    20.7510    13.2520 hc         1 ENR       0.046367
     57 H303       -12.9730    21.0520    12.6960 hc         1 ENR       0.046367
     58 H301       -11.6070    21.2910    11.5820 hc         1 ENR       0.046367
     59 H313       -13.7280    23.5200    12.2430 hc         1 ENR       0.046367
     60 H311       -12.6060    24.8500    12.5680 hc         1 ENR       0.046367
     61 H312       -12.3390    23.7880    11.1690 hc         1 ENR       0.046367
     62 H321       -11.5860    24.8990    14.8080 ha         1 ENR       0.116000
     63 H331       -10.5070    26.9180    15.7750 ha         1 ENR       0.116000
     64 H091        -2.1520    28.0720    12.4900 hn         1 ENR       0.319500
@<TRIPOS>BOND
     1     1    15 1   
     2     1    29 1   
     3     1    35 1   
     4     1    36 1   
     5     2    16 ar  
     6     2    17 ar  
     7     2    37 1   
     8     3    18 1   
     9     3    38 1   
    10     3    39 1   
    11     3    40 1   
    12     4     5 ar  
    13     4    17 ar  
    14     4    41 1   
    15     5    15 ar  
    16     5    42 1   
    17     6    10 ar  
    18     6    19 ar  
    19     6    43 1   
    20     7    20 ar  
    21     7    21 ar  
    22     7    44 1   
    23     8     9 1   
    24     8    45 1   
    25     8    46 1   
    26     8    47 1   
    27     9    28 1   
    28     9    48 1   
    29     9    49 1   
    30    10    11 ar  
    31    10    28 1   
    32    11    12 ar  
    33    11    20 1   
    34    12    13 ar  
    35    12    50 1   
    36    13    14 1   
    37    13    19 ar  
    38    14    29 1   
    39    14    32 2   
    40    15    16 ar  
    41    16    51 1   
    42    17    34 1   
    43    18    34 1   
    44    18    52 1   
    45    18    53 1   
    46    19    54 1   
    47    20    27 ar  
    48    21    25 ar  
    49    21    33 1   
    50    22    23 1   
    51    22    24 1   
    52    22    33 1   
    53    22    55 1   
    54    23    56 1   
    55    23    57 1   
    56    23    58 1   
    57    24    59 1   
    58    24    60 1   
    59    24    61 1   
    60    25    26 ar  
    61    25    62 1   
    62    26    27 ar  
    63    26    63 1   
    64    27    28 1   
    65    29    64 1   
    66    30    34 2   
    67    31    34 2   
@<TRIPOS>SUBSTRUCTURE
     1 ENR         1 TEMP              0 ****  ****    0 ROOT
