@<TRIPOS>MOLECULE
ENS
   65    68     1     0     0
SMALL
No Charge or Current Charge


@<TRIPOS>ATOM
      1 C1           0.2530     8.1570    25.4880 cg         1 ENS       0.348700
      2 C2           6.3290     5.9810    28.1660 ca         1 ENS      -0.126000
      3 C3           7.2620     5.5800    27.1870 ca         1 ENS      -0.043000
      4 C4           4.9600     6.1170    27.8330 ca         1 ENS      -0.094000
      5 C5           7.4700     4.9130    24.7110 cc         1 ENS       0.039800
      6 C6           6.5320     4.8160    23.6940 cd         1 ENS      -0.136100
      7 C7           6.7820     5.3240    25.8950 ca         1 ENS      -0.079800
      8 C8           5.4590     5.4550    25.5650 ca         1 ENS      -0.041200
      9 C9           4.5070     5.8600    26.5200 ca         1 ENS       0.233000
     10 C10          3.4430     9.9450    28.3640 c          1 ENS       0.560000
     11 C11          1.0830     6.9980    25.5550 ce         1 ENS      -0.356900
     12 C12          2.3010     7.0460    26.1310 c2         1 ENS       0.526000
     13 C13          0.5430     5.7530    24.9260 c          1 ENS       0.648300
     14 C14          4.5970    12.9140    29.4000 c          1 ENS       0.584100
     15 C15          0.4800     8.9440    29.6230 c3         1 ENS      -0.076400
     16 C16          0.9420    10.1450    30.4780 c3         1 ENS      -0.098400
     17 C17          7.5040    15.0940    30.1090 c5         1 ENS      -0.092900
     18 C18          7.1600    14.5620    31.5220 c5         1 ENS      -0.092900
     19 C19          1.6030     8.1890    28.8690 c3         1 ENS      -0.095400
     20 C20          1.7100    11.2100    29.6780 c3         1 ENS       0.104000
     21 C21          6.1540    14.9130    29.3670 c5         1 ENS       0.102000
     22 C22          6.3830    13.2620    31.1900 c5         1 ENS       0.102000
     23 C23          2.3210     9.0220    27.7600 c3         1 ENS       0.162500
     24 C24         -1.3430     4.7770    23.7810 c3         1 ENS       0.156900
     25 N26         -0.4210     9.1100    25.4770 n1         1 ENS      -0.528000
     26 N27          5.2580     5.1580    24.2180 na         1 ENS      -0.217700
     27 N28          3.1110    10.8120    29.4290 n          1 ENS      -0.377800
     28 N29          5.6540    13.6560    29.9640 n          1 ENS      -0.420800
     29 N30          3.1540     5.9830    26.1840 nu         1 ENS      -0.872000
     30 N31          2.8910     8.1390    26.6940 nu         1 ENS      -0.827200
     31 O32          4.6080     9.8540    27.9820 o          1 ENS      -0.579000
     32 O33          1.1680     4.7010    24.8480 o          1 ENS      -0.576000
     33 O34          4.0320    13.3130    28.3870 o          1 ENS      -0.600100
     34 O35         -0.7230     5.9080    24.4200 os         1 ENS      -0.431100
     35 Cl36         9.1750     4.6070    24.5970 cl         1 ENS      -0.161000
     36 H2           6.6630     6.1840    29.1810 ha         1 ENS       0.119000
     37 H3           8.3170     5.4710    27.4270 ha         1 ENS       0.128000
     38 H4           4.2490     6.4130    28.5990 ha         1 ENS       0.120000
     39 H6           6.6780     4.5380    22.6540 h4         1 ENS       0.230000
     40 H15         -0.0380     8.2330    30.2790 hc         1 ENS       0.057200
     41 H15A        -0.2680     9.2870    28.8960 hc         1 ENS       0.057200
     42 H16          0.0540    10.6140    30.9190 hc         1 ENS       0.051200
     43 H16A         1.5600     9.7960    31.3150 hc         1 ENS       0.051200
     44 H17          7.8420    16.1370    30.1150 hc         1 ENS       0.056200
     45 H17A         8.2940    14.4940    29.6410 hc         1 ENS       0.056200
     46 H18          8.0480    14.3740    32.1360 hc         1 ENS       0.056200
     47 H18A         6.5260    15.2710    32.0680 hc         1 ENS       0.056200
     48 H19          2.3440     7.8120    29.5840 hc         1 ENS       0.058200
     49 H19A         1.1330     7.3030    28.4280 hc         1 ENS       0.058200
     50 H20          1.1990    11.4210    28.7290 h1         1 ENS       0.063700
     51 H20A         1.7060    12.1440    30.2550 h1         1 ENS       0.063700
     52 H21          5.4630    15.7410    29.5770 h1         1 ENS       0.052200
     53 H21A         6.2910    14.8370    28.2800 h1         1 ENS       0.052200
     54 H22          7.0660    12.4270    30.9820 h1         1 ENS       0.052200
     55 H22A         5.7120    12.9720    32.0090 h1         1 ENS       0.052200
     56 H23          1.5860     9.6990    27.3060 h1         1 ENS       0.103700
     57 H24         -2.3470     5.0420    23.4270 h1         1 ENS       0.046367
     58 H24A        -0.7550     4.4440    22.9170 h1         1 ENS       0.046367
     59 H24B        -1.4400     3.9360    24.4810 h1         1 ENS       0.046367
     60 H25          5.0720    10.9830    30.2300 h1         1 ENS       0.074200
     61 H25A         3.8350    11.8710    31.1210 h1         1 ENS       0.074200
     62 HN27         4.3810     5.2050    23.7070 hn         1 ENS       0.365000
     63 HN31         3.9030     8.0500    26.7300 hn         1 ENS       0.526000
     64 H29          2.7680     5.1810    25.6750 hn         1 ENS       0.561000
     65 C25          4.1760    11.6040    30.1140 c3         1 ENS       0.021000
@<TRIPOS>BOND
     1     1    11 1   
     2     1    25 3   
     3     2     3 ar  
     4     2     4 ar  
     5     2    36 1   
     6     3     7 ar  
     7     3    37 1   
     8     4     9 ar  
     9     4    38 1   
    10     5     6 2   
    11     5     7 1   
    12     5    35 1   
    13     6    26 1   
    14     6    39 1   
    15     7     8 ar  
    16     8     9 ar  
    17     8    26 1   
    18     9    29 1   
    19    10    23 1   
    20    10    27 1   
    21    10    31 2   
    22    11    12 2   
    23    11    13 1   
    24    12    29 1   
    25    12    30 1   
    26    13    32 2   
    27    13    34 1   
    28    14    28 1   
    29    14    33 2   
    30    14    65 1   
    31    15    16 1   
    32    15    19 1   
    33    15    40 1   
    34    15    41 1   
    35    16    20 1   
    36    16    42 1   
    37    16    43 1   
    38    17    18 1   
    39    17    21 1   
    40    17    44 1   
    41    17    45 1   
    42    18    22 1   
    43    18    46 1   
    44    18    47 1   
    45    19    23 1   
    46    19    48 1   
    47    19    49 1   
    48    20    27 1   
    49    20    50 1   
    50    20    51 1   
    51    21    28 1   
    52    21    52 1   
    53    21    53 1   
    54    22    28 1   
    55    22    54 1   
    56    22    55 1   
    57    23    30 1   
    58    23    56 1   
    59    24    34 1   
    60    24    57 1   
    61    24    58 1   
    62    24    59 1   
    63    26    62 1   
    64    27    65 1   
    65    29    64 1   
    66    30    63 1   
    67    60    65 1   
    68    61    65 1   
@<TRIPOS>SUBSTRUCTURE
     1 ENS         1 TEMP              0 ****  ****    0 ROOT
