@<TRIPOS>MOLECULE
ENS
   65    68     1     0     0
SMALL
abcg2


@<TRIPOS>ATOM
      1 C1           0.2560     8.1490    25.8880 cg         1 ENS       0.348700
      2 C2           6.1490     5.5020    28.2330 ca         1 ENS      -0.126000
      3 C3           7.2140     5.4000    27.3540 ca         1 ENS      -0.043000
      4 C4           4.8390     5.7150    27.7750 ca         1 ENS      -0.094000
      5 C5           7.7670     5.4860    24.8000 cc         1 ENS       0.039800
      6 C6           6.9560     5.6860    23.7160 cd         1 ENS      -0.136100
      7 C7           6.9620     5.5210    25.9830 ca         1 ENS      -0.079800
      8 C8           5.6370     5.7520    25.5290 ca         1 ENS      -0.041200
      9 C9           4.5670     5.8490    26.4210 ca         1 ENS       0.233000
     10 C10          3.4090     9.7870    28.5340 c          1 ENS       0.560000
     11 C11          1.0820     7.0150    25.7940 ce         1 ENS      -0.356900
     12 C12          2.4280     7.0550    26.2530 c2         1 ENS       0.526000
     13 C13          0.5420     5.8580    25.1130 c          1 ENS       0.648300
     14 C14          4.6170    12.7090    29.1880 c          1 ENS       0.584100
     15 C15          0.3710     9.0290    29.6260 c3         1 ENS      -0.076400
     16 C16          0.8270    10.2820    30.3720 c3         1 ENS      -0.098400
     17 C17          7.5080    14.7960    29.8930 c5         1 ENS      -0.092900
     18 C18          7.0860    14.3760    31.3040 c5         1 ENS      -0.092900
     19 C19          1.4860     8.2020    28.9880 c3         1 ENS      -0.095400
     20 C20          1.6510    11.2390    29.5140 c3         1 ENS       0.104000
     21 C21          6.2600    14.5260    29.0530 c5         1 ENS       0.102000
     22 C22          6.2270    13.1350    31.0600 c5         1 ENS       0.102000
     23 C23          2.2830     8.9600    27.9010 c3         1 ENS       0.162500
     24 C24         -1.3870     4.9150    24.1060 c3         1 ENS       0.156900
     25 N26         -0.4320     9.0800    25.9390 n1         1 ENS      -0.528000
     26 N27          5.6640     5.8460    24.1620 na         1 ENS      -0.217700
     27 N28          3.0420    10.8030    29.3300 n          1 ENS      -0.377800
     28 N29          5.6180    13.3990    29.7460 n          1 ENS      -0.420800
     29 N30          3.2600     6.0510    25.9140 nu         1 ENS      -0.872000
     30 N31          2.9470     8.0590    26.9720 nu         1 ENS      -0.827200
     31 O32          4.5900     9.4770    28.3480 o          1 ENS      -0.579000
     32 O33          1.1630     4.8410    24.8100 o          1 ENS      -0.576000
     33 O34          4.1490    12.9830    28.0790 o          1 ENS      -0.600100
     34 O35         -0.7630     6.0010    24.8150 os         1 ENS      -0.431100
     35 CL36         9.4770     5.2350    24.7580 cl         1 ENS      -0.161000
     36 H2           6.3210     5.4070    29.2970 ha         1 ENS       0.119000
     37 H3           8.2200     5.2310    27.7160 ha         1 ENS       0.128000
     38 H4           4.0230     5.7760    28.4830 ha         1 ENS       0.120000
     39 H6           7.1980     5.7280    22.6680 h4         1 ENS       0.230000
     40 H15         -0.1850     8.3850    30.3110 hc         1 ENS       0.057200
     41 H15A        -0.3290     9.3240    28.8390 hc         1 ENS       0.057200
     42 H16         -0.0560    10.8200    30.7260 hc         1 ENS       0.051200
     43 H16A         1.4120    10.0120    31.2560 hc         1 ENS       0.051200
     44 H17          7.8250    15.8360    29.8330 hc         1 ENS       0.056200
     45 H17A         8.3320    14.1670    29.5460 hc         1 ENS       0.056200
     46 H18          7.9280    14.1660    31.9620 hc         1 ENS       0.056200
     47 H18A         6.4800    15.1600    31.7630 hc         1 ENS       0.056200
     48 H19          2.1840     7.8330    29.7440 hc         1 ENS       0.058200
     49 H19A         1.0370     7.3260    28.5210 hc         1 ENS       0.058200
     50 H20          1.1810    11.3860    28.5390 h1         1 ENS       0.063700
     51 H20A         1.6980    12.2180    29.9840 h1         1 ENS       0.063700
     52 H21          5.5850    15.3870    29.0430 h1         1 ENS       0.052200
     53 H21A         6.4790    14.2580    28.0210 h1         1 ENS       0.052200
     54 H22          6.8410    12.2300    31.0160 h1         1 ENS       0.052200
     55 H22A         5.4650    12.9970    31.8260 h1         1 ENS       0.052200
     56 H23          1.6160     9.6320    27.3640 h1         1 ENS       0.103700
     57 H24         -2.4140     5.2300    23.9460 h1         1 ENS       0.046367
     58 H24A        -0.8880     4.7460    23.1530 h1         1 ENS       0.046367
     59 H24B        -1.3590     4.0040    24.7030 h1         1 ENS       0.046367
     60 H25          4.9000    10.8670    30.2650 h1         1 ENS       0.074200
     61 H25A         3.6720    11.9190    30.9580 h1         1 ENS       0.074200
     62 HN27         4.8690     6.0250    23.5710 hn         1 ENS       0.365000
     63 HN31         3.9470     8.0230    27.1500 hn         1 ENS       0.526000
     64 H29          2.8490     5.3500    25.2980 hn         1 ENS       0.561000
     65 C25          4.0790    11.5400    30.0200 c3         1 ENS       0.021000
@<TRIPOS>BOND
     1     1    11 1   
     2     1    25 3   
     3     2     3 ar  
     4     2     4 ar  
     5     2    36 1   
     6     3     7 ar  
     7     3    37 1   
     8     4     9 ar  
     9     4    38 1   
    10     5     6 2   
    11     5     7 1   
    12     5    35 1   
    13     6    26 1   
    14     6    39 1   
    15     7     8 ar  
    16     8     9 ar  
    17     8    26 1   
    18     9    29 1   
    19    10    23 1   
    20    10    27 1   
    21    10    31 2   
    22    11    12 2   
    23    11    13 1   
    24    12    29 1   
    25    12    30 1   
    26    13    32 2   
    27    13    34 1   
    28    14    28 1   
    29    14    33 2   
    30    14    65 1   
    31    15    16 1   
    32    15    19 1   
    33    15    40 1   
    34    15    41 1   
    35    16    20 1   
    36    16    42 1   
    37    16    43 1   
    38    17    18 1   
    39    17    21 1   
    40    17    44 1   
    41    17    45 1   
    42    18    22 1   
    43    18    46 1   
    44    18    47 1   
    45    19    23 1   
    46    19    48 1   
    47    19    49 1   
    48    20    27 1   
    49    20    50 1   
    50    20    51 1   
    51    21    28 1   
    52    21    52 1   
    53    21    53 1   
    54    22    28 1   
    55    22    54 1   
    56    22    55 1   
    57    23    30 1   
    58    23    56 1   
    59    24    34 1   
    60    24    57 1   
    61    24    58 1   
    62    24    59 1   
    63    26    62 1   
    64    27    65 1   
    65    29    64 1   
    66    30    63 1   
    67    60    65 1   
    68    61    65 1   
@<TRIPOS>SUBSTRUCTURE
     1 ENS         1 TEMP              0 ****  ****    0 ROOT
