@<TRIPOS>MOLECULE
ENT
   48    49     1     0     0
SMALL
No Charge or Current Charge


@<TRIPOS>ATOM
      1 O6          41.7770    16.7220    11.3990 o          1 ENT      -0.694533
      2 S1          42.7040    16.4720    12.5020 s6         1 ENT       1.360700
      3 O4          43.7760    15.5130    12.2330 o          1 ENT      -0.694533
      4 O5          43.0580    17.6300    13.3260 o          1 ENT      -0.694533
      5 N1          41.7180    15.6330    13.4980 nu         1 ENT      -0.885100
      6 C5          42.1050    14.6530    14.3960 ca         1 ENT       0.361000
      7 C4          41.3620    13.4640    14.4590 ca         1 ENT      -0.193000
      8 C1          41.7090    12.4550    15.3720 ca         1 ENT      -0.066000
      9 C2          43.1900    14.8350    15.2750 ca         1 ENT      -0.135000
     10 C6          43.5480    13.8320    16.1970 ca         1 ENT      -0.082300
     11 C8          44.7550    14.0540    17.1270 c6         1 ENT       0.157300
     12 N2          44.9290    13.0780    18.2420 n          1 ENT      -0.419800
     13 C9          43.7450    12.2030    18.5460 c6         1 ENT       0.053700
     14 C10         42.6780    12.9020    19.4550 c          1 ENT       0.598100
     15 O3          42.9960    13.5930    20.4170 o          1 ENT      -0.638100
     16 N3          41.3460    12.6860    19.1580 ns         1 ENT      -0.486900
     17 C16         40.2270    13.2560    19.9090 c3         1 ENT       0.097300
     18 C7          43.1830    11.5670    17.2470 c6         1 ENT      -0.021100
     19 C3          42.8000    12.6400    16.2400 ca         1 ENT      -0.157300
     20 C11         46.0460    13.1860    19.0920 c          1 ENT       0.647100
     21 O1          46.9410    13.9960    18.8980 o          1 ENT      -0.545000
     22 O2          46.0160    12.2550    20.1030 os         1 ENT      -0.476100
     23 C12         47.0430    12.1600    21.1160 c3         1 ENT       0.226000
     24 C15         48.3970    11.7910    20.4550 c3         1 ENT      -0.108100
     25 C14         47.1010    13.4800    21.9280 c3         1 ENT      -0.108100
     26 C13         46.5710    11.0030    22.0250 c3         1 ENT      -0.108100
     27 HN1         41.0080    15.3600    12.8420 hn         1 ENT       0.461000
     28 H4          40.5140    13.3160    13.7960 ha         1 ENT       0.105000
     29 H1          41.1290    11.5360    15.4050 ha         1 ENT       0.097000
     30 H2          43.7560    15.7610    15.2420 ha         1 ENT       0.152000
     31 H81         44.6790    15.0620    17.5590 h1         1 ENT       0.067700
     32 H82         45.6650    14.0430    16.5090 h1         1 ENT       0.067700
     33 H9          44.0740    11.3490    19.1530 h1         1 ENT       0.077700
     34 HN3         41.1430    12.1300    18.3360 hn         1 ENT       0.337500
     35 H161        40.2850    14.3520    19.8810 h1         1 ENT       0.034367
     36 H162        39.2810    12.9320    19.4580 h1         1 ENT       0.034367
     37 H163        40.2690    12.9140    20.9510 h1         1 ENT       0.034367
     38 H71         42.3420    10.8950    17.4650 hc         1 ENT       0.056200
     39 H72         43.9590    10.9290    16.8010 hc         1 ENT       0.056200
     40 H151        48.8350    12.6370    19.9150 hc         1 ENT       0.047811
     41 H152        49.1230    11.4850    21.2180 hc         1 ENT       0.047811
     42 H153        48.2740    10.9580    19.7530 hc         1 ENT       0.047811
     43 H141        46.0950    13.7930    22.2320 hc         1 ENT       0.047811
     44 H142        47.7010    13.3440    22.8350 hc         1 ENT       0.047811
     45 H143        47.5580    14.2940    21.3560 hc         1 ENT       0.047811
     46 H131        46.4830    10.0700    21.4560 hc         1 ENT       0.047811
     47 H132        47.2810    10.8360    22.8450 hc         1 ENT       0.047811
     48 H133        45.5920    11.2290    22.4650 hc         1 ENT       0.047811
@<TRIPOS>BOND
     1     1     2 1   
     2     2     3 1   
     3     2     4 1   
     4     2     5 1   
     5     5     6 1   
     6     5    27 1   
     7     6     7 ar  
     8     6     9 ar  
     9     7     8 ar  
    10     7    28 1   
    11     8    19 ar  
    12     8    29 1   
    13     9    10 ar  
    14     9    30 1   
    15    10    11 1   
    16    10    19 ar  
    17    11    12 1   
    18    11    31 1   
    19    11    32 1   
    20    12    13 1   
    21    12    20 1   
    22    13    14 1   
    23    13    18 1   
    24    13    33 1   
    25    14    15 2   
    26    14    16 1   
    27    16    17 1   
    28    16    34 1   
    29    17    35 1   
    30    17    36 1   
    31    17    37 1   
    32    18    19 1   
    33    18    38 1   
    34    18    39 1   
    35    20    21 2   
    36    20    22 1   
    37    22    23 1   
    38    23    24 1   
    39    23    25 1   
    40    23    26 1   
    41    24    40 1   
    42    24    41 1   
    43    24    42 1   
    44    25    43 1   
    45    25    44 1   
    46    25    45 1   
    47    26    46 1   
    48    26    47 1   
    49    26    48 1   
@<TRIPOS>SUBSTRUCTURE
     1 ENT         1 TEMP              0 ****  ****    0 ROOT
