@<TRIPOS>MOLECULE
ENT
   48    49     1     0     0
SMALL
bcc


@<TRIPOS>ATOM
      1 O6          41.3950    17.4570    12.4450 o          1 ENT      -0.694533
      2 S1          42.4100    16.6740    13.1550 s6         1 ENT       1.360700
      3 O4          43.1950    15.7780    12.2970 o          1 ENT      -0.694533
      4 O5          43.2420    17.4570    14.0760 o          1 ENT      -0.694533
      5 N1          41.4390    15.6900    14.1620 nu         1 ENT      -0.691500
      6 C5          41.9270    14.5380    14.7750 ca         1 ENT       0.222600
      7 C4          41.0650    13.4540    14.9600 ca         1 ENT      -0.211000
      8 C1          41.4920    12.3110    15.6170 ca         1 ENT      -0.084000
      9 C2          43.2330    14.4460    15.2660 ca         1 ENT      -0.153000
     10 C6          43.6550    13.2870    15.8960 ca         1 ENT      -0.082300
     11 C8          45.0530    13.1290    16.4180 c6         1 ENT       0.157300
     12 N2          45.0390    12.5260    17.7500 n          1 ENT      -0.486800
     13 C9          44.0920    11.4660    18.0670 c6         1 ENT       0.053700
     14 C10         43.0650    11.8640    19.1290 c          1 ENT       0.665100
     15 O3          42.4930    10.9960    19.7760 o          1 ENT      -0.638100
     16 N3          42.8020    13.1650    19.2670 ns         1 ENT      -0.553900
     17 C16         41.8350    13.6590    20.2180 c3         1 ENT       0.097300
     18 C7          43.3550    11.0230    16.7970 c6         1 ENT      -0.021100
     19 C3          42.7940    12.2090    16.0790 ca         1 ENT      -0.157300
     20 C11         45.9760    12.9160    18.6570 c          1 ENT       0.763100
     21 O1          46.8140    13.7680    18.4430 o          1 ENT      -0.594000
     22 O2          45.8350    12.2360    19.7890 os         1 ENT      -0.452900
     23 C12         46.4810    12.6130    21.0340 c3         1 ENT       0.202800
     24 C15         47.9930    12.4520    20.9440 c3         1 ENT      -0.108100
     25 C14         46.0780    14.0270    21.4330 c3         1 ENT      -0.108100
     26 C13         45.9060    11.6120    22.0280 c3         1 ENT      -0.108100
     27 HN1         40.5140    15.5750    13.7670 hn         1 ENT       0.405800
     28 H4          40.0480    13.5110    14.5910 ha         1 ENT       0.123000
     29 H1          40.7990    11.4900    15.7570 ha         1 ENT       0.115000
     30 H2          43.9160    15.2800    15.1770 ha         1 ENT       0.170000
     31 H81         45.5520    14.0930    16.4770 h1         1 ENT       0.067700
     32 H82         45.6390    12.5070    15.7310 h1         1 ENT       0.067700
     33 H9          44.6170    10.5970    18.4660 h1         1 ENT       0.077700
     34 HN3         43.2740    13.8320    18.6810 hn         1 ENT       0.337500
     35 H161        42.0830    13.3480    21.2340 h1         1 ENT       0.034367
     36 H162        41.8410    14.7440    20.1830 h1         1 ENT       0.034367
     37 H163        40.8270    13.3120    19.9900 h1         1 ENT       0.034367
     38 H71         42.5790    10.3050    17.0640 hc         1 ENT       0.056200
     39 H72         44.0650    10.4870    16.1580 hc         1 ENT       0.056200
     40 H151        48.4470    13.1740    20.2700 hc         1 ENT       0.047811
     41 H152        48.4260    12.6020    21.9340 hc         1 ENT       0.047811
     42 H153        48.2590    11.4470    20.6140 hc         1 ENT       0.047811
     43 H141        44.9920    14.1370    21.4230 hc         1 ENT       0.047811
     44 H142        46.4210    14.2230    22.4490 hc         1 ENT       0.047811
     45 H143        46.5140    14.7850    20.7860 hc         1 ENT       0.047811
     46 H131        46.1740    10.5890    21.7620 hc         1 ENT       0.047811
     47 H132        46.2960    11.8130    23.0260 hc         1 ENT       0.047811
     48 H133        44.8170    11.6820    22.0720 hc         1 ENT       0.047811
@<TRIPOS>BOND
     1     1     2 1   
     2     2     3 1   
     3     2     4 1   
     4     2     5 1   
     5     5     6 1   
     6     5    27 1   
     7     6     7 ar  
     8     6     9 ar  
     9     7     8 ar  
    10     7    28 1   
    11     8    19 ar  
    12     8    29 1   
    13     9    10 ar  
    14     9    30 1   
    15    10    11 1   
    16    10    19 ar  
    17    11    12 1   
    18    11    31 1   
    19    11    32 1   
    20    12    13 1   
    21    12    20 1   
    22    13    14 1   
    23    13    18 1   
    24    13    33 1   
    25    14    15 2   
    26    14    16 1   
    27    16    17 1   
    28    16    34 1   
    29    17    35 1   
    30    17    36 1   
    31    17    37 1   
    32    18    19 1   
    33    18    38 1   
    34    18    39 1   
    35    20    21 2   
    36    20    22 1   
    37    22    23 1   
    38    23    24 1   
    39    23    25 1   
    40    23    26 1   
    41    24    40 1   
    42    24    41 1   
    43    24    42 1   
    44    25    43 1   
    45    25    44 1   
    46    25    45 1   
    47    26    46 1   
    48    26    47 1   
    49    26    48 1   
@<TRIPOS>SUBSTRUCTURE
     1 ENT         1 TEMP              0 ****  ****    0 ROOT
