@<TRIPOS>MOLECULE
ENU
   71    75     1     0     0
SMALL
No Charge or Current Charge


@<TRIPOS>ATOM
      1 C10         -0.9820    27.1380    11.2590 c3         1 ENU       0.147300
      2 C13          0.6200    23.8260    12.3510 ca         1 ENU      -0.015000
      3 C17          1.6360    22.4970    15.4790 c3         1 ENU      -0.291400
      4 C20          1.7440    25.6510    13.5130 ca         1 ENU      -0.015000
      5 C21          0.9080    26.5750    12.8630 ca         1 ENU      -0.116500
      6 C24         -5.3210    28.6160    14.7370 ca         1 ENU      -0.159000
      7 C26         -8.8290    25.3960    13.2340 ca         1 ENU      -0.094000
      8 C01         -7.5700    28.4250    17.8120 c3         1 ENU      -0.118100
      9 C02         -7.9510    29.0130    16.4410 c3         1 ENU       0.082600
     10 C04         -6.5360    27.9350    14.6330 ca         1 ENU       0.028800
     11 C05         -6.7500    26.9100    13.7180 cp         1 ENU      -0.109000
     12 C06         -5.7210    26.5200    12.8420 ca         1 ENU       0.016000
     13 C07         -4.4680    27.1860    12.9070 ca         1 ENU      -0.202600
     14 C08         -3.3690    26.7570    11.9610 c          1 ENU       0.617700
     15 C11         -0.0730    26.1350    11.9550 ca         1 ENU      -0.035300
     16 C12         -0.2120    24.7560    11.7050 ca         1 ENU      -0.116500
     17 C14          1.6040    24.2710    13.2580 ca         1 ENU      -0.264500
     18 C18          1.1960    23.6230    16.4470 c3         1 ENU      -0.069100
     19 C23         -4.2810    28.2330    13.8620 ca         1 ENU      -0.055000
     20 C25         -8.1150    26.4160    13.8900 cp         1 ENU      -0.045000
     21 C27        -10.1560    25.1270    13.6330 ca         1 ENU       0.120100
     22 C29        -12.0480    23.5320    13.4550 c6         1 ENU       0.182300
     23 C30        -11.7920    22.7130    14.7530 c6         1 ENU      -0.088900
     24 C31        -10.7900    21.5430    14.5230 c6         1 ENU      -0.067900
     25 C32        -10.8770    20.9360    13.0930 c6         1 ENU      -0.071400
     26 C33        -12.2840    21.1180    12.4780 c6         1 ENU      -0.067900
     27 C34        -12.6690    22.6220    12.3510 c6         1 ENU      -0.088900
     28 C35        -10.7580    25.8920    14.6750 ca         1 ENU      -0.157000
     29 C36        -10.0360    26.9140    15.3300 ca         1 ENU      -0.104000
     30 C37         -8.7210    27.1440    14.9100 ca         1 ENU      -0.037200
     31 N03         -7.7460    28.0590    15.3360 na         1 ENU      -0.092600
     32 N09         -2.1730    27.4320    12.0580 ns         1 ENU      -0.511900
     33 O16          2.8480    21.9150    13.2150 o          1 ENU      -0.526000
     34 O19          3.8120    23.7770    14.6810 o          1 ENU      -0.526000
     35 O22         -3.5280    25.8570    11.1480 o          1 ENU      -0.600100
     36 O28        -10.8230    24.1200    12.9580 os         1 ENU      -0.357100
     37 S15          2.6600    23.0730    14.1000 sy         1 ENU       1.039500
     38 H102        -1.2800    26.7540    10.2750 h1         1 ENU       0.059200
     39 H101        -0.4330    28.0750    11.0930 h1         1 ENU       0.059200
     40 H131         0.4940    22.7640    12.1470 ha         1 ENU       0.135000
     41 H171         0.7570    22.0120    15.0400 h1         1 ENU       0.099200
     42 H172         2.2250    21.7450    16.0150 h1         1 ENU       0.099200
     43 H201         2.4940    26.0130    14.2150 ha         1 ENU       0.135000
     44 H211         1.0230    27.6370    13.0690 ha         1 ENU       0.119500
     45 H241        -5.1750    29.4100    15.4640 ha         1 ENU       0.120000
     46 H261        -8.3660    24.8200    12.4370 ha         1 ENU       0.134000
     47 H012        -7.7370    29.1650    18.6030 hc         1 ENU       0.047367
     48 H013        -8.1760    27.5390    18.0340 hc         1 ENU       0.047367
     49 H011        -6.5120    28.1360    17.8270 hc         1 ENU       0.047367
     50 H021        -7.3520    29.9120    16.2500 h1         1 ENU       0.056200
     51 H022        -9.0040    29.3190    16.4550 h1         1 ENU       0.056200
     52 H061        -5.8950    25.7160    12.1290 ha         1 ENU       0.140000
     53 H121        -0.9710    24.4040    11.0100 ha         1 ENU       0.119500
     54 H183         0.6030    23.2060    17.2700 hc         1 ENU       0.050367
     55 H181         2.0660    24.1320    16.8820 hc         1 ENU       0.050367
     56 H182         0.5790    24.3700    15.9330 hc         1 ENU       0.050367
     57 H231        -3.3340    28.7600    13.9410 ha         1 ENU       0.105000
     58 H291       -12.7650    24.3400    13.6550 h1         1 ENU       0.038700
     59 H302       -11.4310    23.3580    15.5630 hc         1 ENU       0.049700
     60 H301       -12.7500    22.3060    15.1050 hc         1 ENU       0.049700
     61 H312       -10.9780    20.7610    15.2720 hc         1 ENU       0.039700
     62 H311        -9.7640    21.8930    14.7010 hc         1 ENU       0.039700
     63 H321       -10.6090    19.8710    13.1230 hc         1 ENU       0.045200
     64 H322       -10.1350    21.4190    12.4420 hc         1 ENU       0.045200
     65 H331       -13.0220    20.6000    13.1080 hc         1 ENU       0.039700
     66 H332       -12.3330    20.6360    11.4920 hc         1 ENU       0.039700
     67 H341       -12.3690    22.9970    11.3630 hc         1 ENU       0.049700
     68 H342       -13.7640    22.7100    12.3810 hc         1 ENU       0.049700
     69 H351       -11.7820    25.7120    14.9860 ha         1 ENU       0.116000
     70 H361       -10.4880    27.4970    16.1290 ha         1 ENU       0.116000
     71 H091        -2.1150    28.1610    12.7550 hn         1 ENU       0.319500
@<TRIPOS>BOND
     1     1    15 1   
     2     1    32 1   
     3     1    38 1   
     4     1    39 1   
     5     2    16 ar  
     6     2    17 ar  
     7     2    40 1   
     8     3    18 1   
     9     3    37 1   
    10     3    41 1   
    11     3    42 1   
    12     4     5 ar  
    13     4    17 ar  
    14     4    43 1   
    15     5    15 ar  
    16     5    44 1   
    17     6    10 ar  
    18     6    19 ar  
    19     6    45 1   
    20     7    20 ar  
    21     7    21 ar  
    22     7    46 1   
    23     8     9 1   
    24     8    47 1   
    25     8    48 1   
    26     8    49 1   
    27     9    31 1   
    28     9    50 1   
    29     9    51 1   
    30    10    11 ar  
    31    10    31 1   
    32    11    12 ar  
    33    11    20 1   
    34    12    13 ar  
    35    12    52 1   
    36    13    14 1   
    37    13    19 ar  
    38    14    32 1   
    39    14    35 2   
    40    15    16 ar  
    41    16    53 1   
    42    17    37 1   
    43    18    54 1   
    44    18    55 1   
    45    18    56 1   
    46    19    57 1   
    47    20    30 ar  
    48    21    28 ar  
    49    21    36 1   
    50    22    23 1   
    51    22    27 1   
    52    22    36 1   
    53    22    58 1   
    54    23    24 1   
    55    23    59 1   
    56    23    60 1   
    57    24    25 1   
    58    24    61 1   
    59    24    62 1   
    60    25    26 1   
    61    25    63 1   
    62    25    64 1   
    63    26    27 1   
    64    26    65 1   
    65    26    66 1   
    66    27    67 1   
    67    27    68 1   
    68    28    29 ar  
    69    28    69 1   
    70    29    30 ar  
    71    29    70 1   
    72    30    31 1   
    73    32    71 1   
    74    33    37 2   
    75    34    37 2   
@<TRIPOS>SUBSTRUCTURE
     1 ENU         1 TEMP              0 ****  ****    0 ROOT
