@<TRIPOS>MOLECULE
ENU
   71    75     1     0     0
SMALL
abcg2


@<TRIPOS>ATOM
      1 C10         -1.1370    27.0580    11.3710 c3         1 ENU       0.147300
      2 C13          1.4450    24.3790    12.0920 ca         1 ENU      -0.015000
      3 C17          1.8970    21.9860    14.6080 c3         1 ENU      -0.291400
      4 C20          0.9190    25.5030    14.1670 ca         1 ENU      -0.015000
      5 C21          0.0110    26.3050    13.4940 ca         1 ENU      -0.116500
      6 C24         -5.4500    28.6590    14.7240 ca         1 ENU      -0.159000
      7 C26         -8.8170    25.3160    13.3000 ca         1 ENU      -0.094000
      8 C01         -7.7910    28.8630    17.5370 c3         1 ENU      -0.118100
      9 C02         -8.1400    29.2800    16.1170 c3         1 ENU       0.082600
     10 C04         -6.6590    27.9790    14.5820 ca         1 ENU       0.028800
     11 C05         -6.7590    26.8340    13.7600 cp         1 ENU      -0.109000
     12 C06         -5.6500    26.3810    13.0640 ca         1 ENU       0.016000
     13 C07         -4.4470    27.0700    13.1710 ca         1 ENU      -0.202600
     14 C08         -3.2840    26.5610    12.3960 c          1 ENU       0.617700
     15 C11         -0.1930    26.1550    12.1260 ca         1 ENU      -0.035300
     16 C12          0.5290    25.1840    11.4370 ca         1 ENU      -0.116500
     17 C14          1.6290    24.5430    13.4590 ca         1 ENU      -0.264500
     18 C18          0.6980    22.1660    15.5180 c3         1 ENU      -0.069100
     19 C23         -4.3630    28.1960    14.0100 ca         1 ENU      -0.055000
     20 C25         -8.1230    26.3820    13.8590 cp         1 ENU      -0.045000
     21 C27        -10.1630    25.1550    13.6010 ca         1 ENU       0.120100
     22 C29        -11.9790    23.5640    13.5610 c6         1 ENU       0.182300
     23 C30        -11.6900    22.9510    14.9230 c6         1 ENU      -0.088900
     24 C31        -10.5490    21.9300    14.8530 c6         1 ENU      -0.067900
     25 C32        -10.5450    21.1430    13.5320 c6         1 ENU      -0.071400
     26 C33        -11.9450    21.0860    12.9310 c6         1 ENU      -0.067900
     27 C34        -12.4700    22.4860    12.5900 c6         1 ENU      -0.088900
     28 C35        -10.8000    26.0570    14.4680 ca         1 ENU      -0.157000
     29 C36        -10.1140    27.1170    15.0400 ca         1 ENU      -0.104000
     30 C37         -8.7710    27.2770    14.7300 ca         1 ENU      -0.037200
     31 N03         -7.8730    28.2420    15.1450 na         1 ENU      -0.092600
     32 N09         -2.3010    27.4430    12.1260 ns         1 ENU      -0.511900
     33 O16          3.8890    23.2040    13.3840 o          1 ENU      -0.526000
     34 O19          3.1070    24.1310    15.5890 o          1 ENU      -0.526000
     35 O22         -3.2250    25.4010    12.0080 o          1 ENU      -0.600100
     36 O28        -10.7970    24.1290    12.9860 os         1 ENU      -0.357100
     37 S15          2.7920    23.5080    14.3030 sy         1 ENU       1.039500
     38 H102        -1.4250    26.5800    10.4330 h1         1 ENU       0.059200
     39 H101        -0.6100    27.9750    11.1040 h1         1 ENU       0.059200
     40 H131         1.9990    23.6330    11.5380 ha         1 ENU       0.135000
     41 H171         1.6170    21.5920    13.6300 h1         1 ENU       0.099200
     42 H172         2.6410    21.3150    15.0440 h1         1 ENU       0.099200
     43 H201         1.0700    25.6350    15.2290 ha         1 ENU       0.135000
     44 H211        -0.5420    27.0530    14.0470 ha         1 ENU       0.119500
     45 H241        -5.3520    29.5170    15.3750 ha         1 ENU       0.120000
     46 H261        -8.3250    24.6160    12.6350 ha         1 ENU       0.134000
     47 H012        -8.0100    29.6770    18.2280 hc         1 ENU       0.047367
     48 H013        -8.3700    27.9930    17.8470 hc         1 ENU       0.047367
     49 H011        -6.7330    28.6190    17.6290 hc         1 ENU       0.047367
     50 H021        -7.5770    30.1690    15.8280 h1         1 ENU       0.056200
     51 H022        -9.1930    29.5500    16.0430 h1         1 ENU       0.056200
     52 H061        -5.7190    25.5050    12.4310 ha         1 ENU       0.140000
     53 H121         0.3740    25.0530    10.3730 ha         1 ENU       0.119500
     54 H183         0.2360    21.1940    15.6820 hc         1 ENU       0.050367
     55 H181         0.9850    22.5690    16.4870 hc         1 ENU       0.050367
     56 H182        -0.0550    22.8170    15.0750 hc         1 ENU       0.050367
     57 H231        -3.4200    28.7110    14.1380 ha         1 ENU       0.105000
     58 H291       -12.7470    24.3410    13.6460 h1         1 ENU       0.038700
     59 H302       -11.4740    23.7160    15.6720 hc         1 ENU       0.049700
     60 H301       -12.6130    22.4660    15.2530 hc         1 ENU       0.049700
     61 H312       -10.6520    21.2420    15.6950 hc         1 ENU       0.039700
     62 H311        -9.5880    22.4310    14.9880 hc         1 ENU       0.039700
     63 H321       -10.1640    20.1330    13.6980 hc         1 ENU       0.045200
     64 H322        -9.8660    21.6120    12.8160 hc         1 ENU       0.045200
     65 H331       -12.6190    20.6010    13.6450 hc         1 ENU       0.039700
     66 H332       -11.9550    20.4610    12.0360 hc         1 ENU       0.039700
     67 H341       -12.1780    22.7690    11.5760 hc         1 ENU       0.049700
     68 H342       -13.5620    22.4810    12.6010 hc         1 ENU       0.049700
     69 H351       -11.8490    25.9450    14.7050 ha         1 ENU       0.116000
     70 H361       -10.6330    27.7920    15.7080 ha         1 ENU       0.116000
     71 H091        -2.4240    28.4190    12.3350 hn         1 ENU       0.319500
@<TRIPOS>BOND
     1     1    15 1   
     2     1    32 1   
     3     1    38 1   
     4     1    39 1   
     5     2    16 ar  
     6     2    17 ar  
     7     2    40 1   
     8     3    18 1   
     9     3    37 1   
    10     3    41 1   
    11     3    42 1   
    12     4     5 ar  
    13     4    17 ar  
    14     4    43 1   
    15     5    15 ar  
    16     5    44 1   
    17     6    10 ar  
    18     6    19 ar  
    19     6    45 1   
    20     7    20 ar  
    21     7    21 ar  
    22     7    46 1   
    23     8     9 1   
    24     8    47 1   
    25     8    48 1   
    26     8    49 1   
    27     9    31 1   
    28     9    50 1   
    29     9    51 1   
    30    10    11 ar  
    31    10    31 1   
    32    11    12 ar  
    33    11    20 1   
    34    12    13 ar  
    35    12    52 1   
    36    13    14 1   
    37    13    19 ar  
    38    14    32 1   
    39    14    35 2   
    40    15    16 ar  
    41    16    53 1   
    42    17    37 1   
    43    18    54 1   
    44    18    55 1   
    45    18    56 1   
    46    19    57 1   
    47    20    30 ar  
    48    21    28 ar  
    49    21    36 1   
    50    22    23 1   
    51    22    27 1   
    52    22    36 1   
    53    22    58 1   
    54    23    24 1   
    55    23    59 1   
    56    23    60 1   
    57    24    25 1   
    58    24    61 1   
    59    24    62 1   
    60    25    26 1   
    61    25    63 1   
    62    25    64 1   
    63    26    27 1   
    64    26    65 1   
    65    26    66 1   
    66    27    67 1   
    67    27    68 1   
    68    28    29 ar  
    69    28    69 1   
    70    29    30 ar  
    71    29    70 1   
    72    30    31 1   
    73    32    71 1   
    74    33    37 2   
    75    34    37 2   
@<TRIPOS>SUBSTRUCTURE
     1 ENU         1 TEMP              0 ****  ****    0 ROOT
