@<TRIPOS>MOLECULE
ENV
   47    46     1     0     0
SMALL
abcg2


@<TRIPOS>ATOM
      1 C2          -6.5180    -0.7360     0.3520 c          1 ENV       0.538100
      2 C3          -7.9680    -0.3840     0.5880 c3         1 ENV       0.081600
      3 C4          -5.5590     0.4070     0.5320 c3         1 ENV      -0.181400
      4 F4          -8.7710    -1.4860     0.3960 f          1 ENV      -0.241000
      5 O5          -6.1840    -1.8530     0.0460 o          1 ENV      -0.480100
      6 C6          -4.0960     0.0280     0.3710 c3         1 ENV      -0.092400
      7 C7          -3.1940     1.2420     0.5730 c3         1 ENV       0.103000
      8 N8          -1.7870     0.9230     0.4820 ns         1 ENV      -0.503900
      9 C9          -1.1320     0.7920    -0.6810 c          1 ENV       0.603100
     10 C10          0.3110     0.3480    -0.5620 c3         1 ENV      -0.183400
     11 O11         -1.6560     1.0050    -1.7680 o          1 ENV      -0.608100
     12 H3          -8.0940    -0.0180     1.6110 h1         1 ENV       0.060200
     13 H3A         -8.2730     0.4140    -0.0940 h1         1 ENV       0.060200
     14 H4          -5.8380     1.1940    -0.1790 hc         1 ENV       0.062700
     15 H6          -3.8290    -0.7450     1.0950 hc         1 ENV       0.063700
     16 H6A         -3.9220    -0.3880    -0.6230 hc         1 ENV       0.063700
     17 H7          -3.4330     2.0150    -0.1600 h1         1 ENV       0.052200
     18 HN8         -1.3040     0.6950     1.3360 hn         1 ENV       0.315500
     19 C8           1.2000     1.0090    -1.6110 c3         1 ENV       0.116000
     20 H10          0.6960     0.5530     0.4390 hc         1 ENV       0.065200
     21 N2           2.5640     0.5370    -1.5440 ns         1 ENV      -0.501900
     22 C91          3.4550     1.0100    -0.6640 c          1 ENV       0.578100
     23 C101         4.8540     0.3840    -0.7210 c3         1 ENV       0.088300
     24 C11          5.1630    -0.5160     0.5080 c3         1 ENV      -0.066000
     25 O3           3.1890     1.8990     0.1360 o          1 ENV      -0.608100
     26 O4           5.0730    -0.2700    -1.9510 oh         1 ENV      -0.662000
     27 C12          6.5930    -1.0490     0.3180 c3         1 ENV       0.165600
     28 C13          5.1090     0.2990     1.8020 c3         1 ENV      -0.086100
     29 C14          4.1680    -1.6780     0.5910 c3         1 ENV      -0.086100
     30 O51          6.9480    -1.8480     1.4220 oh         1 ENV      -0.660000
     31 H4A         -5.7400     0.8460     1.5200 hc         1 ENV       0.062700
     32 H7A         -3.3670     1.6760     1.5580 h1         1 ENV       0.052200
     33 H10A         0.3400    -0.7380    -0.6950 hc         1 ENV       0.065200
     34 H12          0.8280     0.7900    -2.6090 h1         1 ENV       0.068700
     35 H13          1.1840     2.0930    -1.4880 h1         1 ENV       0.068700
     36 H14          2.8620    -0.1450    -2.2190 hn         1 ENV       0.323500
     37 H15          5.5520     1.2290    -0.6960 h1         1 ENV       0.097700
     38 H16          4.8640    -1.2070    -1.8720 ho         1 ENV       0.447000
     39 H17          6.6590    -1.6310    -0.6090 h1         1 ENV       0.023200
     40 H18          7.2740    -0.1930     0.2100 h1         1 ENV       0.023200
     41 H19          4.1010     0.6290     2.0380 hc         1 ENV       0.044700
     42 H20          5.4600    -0.3050     2.6370 hc         1 ENV       0.044700
     43 H21          5.7480     1.1830     1.7420 hc         1 ENV       0.044700
     44 H22          4.1950    -2.3230    -0.2920 hc         1 ENV       0.044700
     45 H23          4.3860    -2.3160     1.4460 hc         1 ENV       0.044700
     46 H24          3.1440    -1.3190     0.7090 hc         1 ENV       0.044700
     47 H25          7.8220    -2.2100     1.2550 ho         1 ENV       0.446000
@<TRIPOS>BOND
     1     1     2 1   
     2     1     3 1   
     3     1     5 2   
     4     2     4 1   
     5     2    12 1   
     6     2    13 1   
     7     3     6 1   
     8     3    14 1   
     9     3    31 1   
    10     6     7 1   
    11     6    15 1   
    12     6    16 1   
    13     7     8 1   
    14     7    17 1   
    15     7    32 1   
    16     8     9 1   
    17     8    18 1   
    18     9    10 1   
    19     9    11 2   
    20    10    19 1   
    21    10    20 1   
    22    10    33 1   
    23    19    21 1   
    24    19    34 1   
    25    19    35 1   
    26    21    22 1   
    27    21    36 1   
    28    22    23 1   
    29    22    25 2   
    30    23    24 1   
    31    23    26 1   
    32    23    37 1   
    33    24    27 1   
    34    24    28 1   
    35    24    29 1   
    36    26    38 1   
    37    27    30 1   
    38    27    39 1   
    39    27    40 1   
    40    28    41 1   
    41    28    42 1   
    42    28    43 1   
    43    29    44 1   
    44    29    45 1   
    45    29    46 1   
    46    30    47 1   
@<TRIPOS>SUBSTRUCTURE
     1 ENV         1 TEMP              0 ****  ****    0 ROOT
