@<TRIPOS>MOLECULE
ENV
   47    46     1     0     0
SMALL
No Charge or Current Charge


@<TRIPOS>ATOM
      1 C2          -6.5430    -0.2600     1.3150 c          1 ENV       0.538100
      2 C3          -7.2740    -0.9780     0.1610 c3         1 ENV       0.081600
      3 C4          -5.6370     0.9150     0.9110 c3         1 ENV      -0.181400
      4 F4          -7.9820    -2.0670     0.5680 f          1 ENV      -0.241000
      5 O5          -6.6610    -0.5940     2.4890 o          1 ENV      -0.480100
      6 C6          -4.1570     0.4750     0.7840 c3         1 ENV      -0.092400
      7 C7          -3.2210     1.6310     0.3730 c3         1 ENV       0.103000
      8 N8          -1.8240     1.2020     0.2790 ns         1 ENV      -0.503900
      9 C9          -1.2860     0.4970    -0.7740 c          1 ENV       0.603100
     10 C10          0.1880     0.1330    -0.6240 c3         1 ENV      -0.183400
     11 O11         -1.9470     0.1640    -1.7470 o          1 ENV      -0.608100
     12 H3          -7.9580    -0.2650    -0.3140 h1         1 ENV       0.060200
     13 H3A         -6.5290    -1.2950    -0.5790 h1         1 ENV       0.060200
     14 H4          -5.9530     1.2960    -0.0670 hc         1 ENV       0.062700
     15 H6          -3.8160     0.0650     1.7440 hc         1 ENV       0.063700
     16 H6A         -4.0800    -0.3330     0.0460 hc         1 ENV       0.063700
     17 H7          -3.5380     2.0370    -0.5970 h1         1 ENV       0.052200
     18 HN8         -1.1970     1.4290     1.0420 hn         1 ENV       0.315500
     19 C8           1.0530     0.9850    -1.5710 c3         1 ENV       0.116000
     20 H10          0.5170     0.3040     0.4070 hc         1 ENV       0.065200
     21 N2           2.4730     0.6590    -1.4420 ns         1 ENV      -0.501900
     22 C91          3.2980     1.0790    -0.4190 c          1 ENV       0.578100
     23 C101         4.7720     0.5510    -0.4990 c3         1 ENV       0.088300
     24 C11          5.0450    -0.7180     0.4000 c3         1 ENV      -0.066000
     25 O3           2.9100     1.8620     0.4390 o          1 ENV      -0.608100
     26 O4           5.1700     0.2970    -1.8770 oh         1 ENV      -0.662000
     27 C12          6.5750    -1.0510     0.3500 c3         1 ENV       0.165600
     28 C13          4.6360    -0.4170     1.8750 c3         1 ENV      -0.086100
     29 C14          4.2150    -1.9390    -0.1040 c3         1 ENV      -0.086100
     30 O51          6.9140    -2.1690     1.1840 oh         1 ENV      -0.660000
     31 H4A         -5.7100     1.7030     1.6710 hc         1 ENV       0.062700
     32 H7A         -3.2880     2.4370     1.1150 h1         1 ENV       0.052200
     33 H10A         0.3210    -0.9230    -0.8880 hc         1 ENV       0.065200
     34 H12          0.7450     0.8100    -2.6110 h1         1 ENV       0.068700
     35 H13          0.9070     2.0510    -1.3510 h1         1 ENV       0.068700
     36 H14          2.9150     0.0730    -2.1430 hn         1 ENV       0.323500
     37 H15          5.3750     1.3770    -0.0960 h1         1 ENV       0.097700
     38 H16          6.1500     0.3510    -1.9250 ho         1 ENV       0.447000
     39 H17          6.8690    -1.2710    -0.6850 h1         1 ENV       0.023200
     40 H18          7.1430    -0.1660     0.6690 h1         1 ENV       0.023200
     41 H19          3.5580    -0.2350     1.9660 hc         1 ENV       0.044700
     42 H20          4.8680    -1.2600     2.5370 hc         1 ENV       0.044700
     43 H21          5.1650     0.4650     2.2570 hc         1 ENV       0.044700
     44 H22          4.4900    -2.2110    -1.1300 hc         1 ENV       0.044700
     45 H23          4.3810    -2.8190     0.5290 hc         1 ENV       0.044700
     46 H24          3.1400    -1.7250    -0.0860 hc         1 ENV       0.044700
     47 H25          7.8830    -2.3110     1.0930 ho         1 ENV       0.446000
@<TRIPOS>BOND
     1     1     2 1   
     2     1     3 1   
     3     1     5 2   
     4     2     4 1   
     5     2    12 1   
     6     2    13 1   
     7     3     6 1   
     8     3    14 1   
     9     3    31 1   
    10     6     7 1   
    11     6    15 1   
    12     6    16 1   
    13     7     8 1   
    14     7    17 1   
    15     7    32 1   
    16     8     9 1   
    17     8    18 1   
    18     9    10 1   
    19     9    11 2   
    20    10    19 1   
    21    10    20 1   
    22    10    33 1   
    23    19    21 1   
    24    19    34 1   
    25    19    35 1   
    26    21    22 1   
    27    21    36 1   
    28    22    23 1   
    29    22    25 2   
    30    23    24 1   
    31    23    26 1   
    32    23    37 1   
    33    24    27 1   
    34    24    28 1   
    35    24    29 1   
    36    26    38 1   
    37    27    30 1   
    38    27    39 1   
    39    27    40 1   
    40    28    41 1   
    41    28    42 1   
    42    28    43 1   
    43    29    44 1   
    44    29    45 1   
    45    29    46 1   
    46    30    47 1   
@<TRIPOS>SUBSTRUCTURE
     1 ENV         1 TEMP              0 ****  ****    0 ROOT
