@<TRIPOS>MOLECULE
ENW
   45    44     1     0     0
SMALL
No Charge or Current Charge


@<TRIPOS>ATOM
      1 C2           5.0940     0.2740    -1.7970 c          1 ENW       0.560100
      2 C3           4.9300     1.7200    -2.3000 c3         1 ENW       0.129600
      3 F4           5.5420     1.9450    -3.4960 f          1 ENW      -0.235000
      4 O4           4.4630     0.0870    -0.5920 os         1 ENW      -0.460100
      5 O5           5.7100    -0.6050    -2.3910 o          1 ENW      -0.447000
      6 C6           4.5220    -1.2230     0.0120 c3         1 ENW       0.140600
      7 C7           3.7310    -1.1830     1.3390 c3         1 ENW       0.104000
      8 N8           2.3160    -0.8180     1.1620 ns         1 ENW      -0.505900
      9 C9           1.3610    -1.6350     0.6050 c          1 ENW       0.600100
     10 C10         -0.0240    -1.0100     0.4610 c3         1 ENW      -0.177400
     11 O11          1.6120    -2.7710     0.2300 o          1 ENW      -0.595100
     12 H3           3.8590     1.9300    -2.4020 h1         1 ENW       0.070200
     13 H3A          5.3520     2.3970    -1.5490 h1         1 ENW       0.070200
     14 H6           4.0860    -1.9820    -0.6520 h1         1 ENW       0.068200
     15 H6A          5.5610    -1.5110     0.2220 h1         1 ENW       0.068200
     16 H7           3.7860    -2.1680     1.8200 h1         1 ENW       0.066200
     17 H7A          4.2010    -0.4570     2.0140 h1         1 ENW       0.066200
     18 HN8          2.0240     0.1170     1.4220 hn         1 ENW       0.318500
     19 C71         -1.0030    -1.6230     1.4790 c3         1 ENW       0.111000
     20 H10          0.0260     0.0720     0.6310 hc         1 ENW       0.060200
     21 H10A        -0.3980    -1.2120    -0.5490 hc         1 ENW       0.060200
     22 N2          -2.3310    -1.0160     1.3840 ns         1 ENW      -0.502900
     23 C8          -3.2720    -1.3000     0.4160 c          1 ENW       0.579100
     24 H101        -2.6090    -0.3190     2.0680 hn         1 ENW       0.315500
     25 C91         -4.5990    -0.4710     0.5190 c3         1 ENW       0.089300
     26 O41         -3.0950    -2.1850    -0.4130 o          1 ENW      -0.596100
     27 O51         -4.8760    -0.0830     1.8950 oh         1 ENW      -0.668000
     28 C101        -4.6410     0.7870    -0.4340 c3         1 ENW      -0.065000
     29 C11         -6.0670     1.4330    -0.3510 c3         1 ENW       0.164600
     30 C12         -3.5580     1.8290    -0.0180 c3         1 ENW      -0.087600
     31 C13         -4.3650     0.3460    -1.9040 c3         1 ENW      -0.087600
     32 O6          -6.2030     2.5610    -1.2280 oh         1 ENW      -0.659000
     33 H11         -1.0880    -2.7060     1.3120 h1         1 ENW       0.069200
     34 H12         -0.6200    -1.4690     2.4980 h1         1 ENW       0.069200
     35 H13         -5.3780    -1.1680     0.1780 h1         1 ENW       0.094700
     36 H14         -5.8420     0.0790     1.9760 ho         1 ENW       0.449000
     37 H15         -6.8180     0.6730    -0.6070 h1         1 ENW       0.022200
     38 H16         -6.2660     1.7520     0.6810 h1         1 ENW       0.022200
     39 H17         -2.5510     1.3960    -0.0600 hc         1 ENW       0.045533
     40 H18         -3.5650     2.6970    -0.6890 hc         1 ENW       0.045533
     41 H19         -3.7270     2.1960     1.0010 hc         1 ENW       0.045533
     42 H20         -5.0800    -0.4220    -2.2240 hc         1 ENW       0.045533
     43 H21         -4.4460     1.1900    -2.5990 hc         1 ENW       0.045533
     44 H22         -3.3530    -0.0600    -2.0200 hc         1 ENW       0.045533
     45 H23         -7.1170     2.9040    -1.1150 ho         1 ENW       0.446000
@<TRIPOS>BOND
     1     1     2 1   
     2     1     4 1   
     3     1     5 2   
     4     2     3 1   
     5     2    12 1   
     6     2    13 1   
     7     4     6 1   
     8     6     7 1   
     9     6    14 1   
    10     6    15 1   
    11     7     8 1   
    12     7    16 1   
    13     7    17 1   
    14     8     9 1   
    15     8    18 1   
    16     9    10 1   
    17     9    11 2   
    18    10    19 1   
    19    10    20 1   
    20    10    21 1   
    21    19    22 1   
    22    19    33 1   
    23    19    34 1   
    24    22    23 1   
    25    22    24 1   
    26    23    25 1   
    27    23    26 2   
    28    25    27 1   
    29    25    28 1   
    30    25    35 1   
    31    27    36 1   
    32    28    29 1   
    33    28    30 1   
    34    28    31 1   
    35    29    32 1   
    36    29    37 1   
    37    29    38 1   
    38    30    39 1   
    39    30    40 1   
    40    30    41 1   
    41    31    42 1   
    42    31    43 1   
    43    31    44 1   
    44    32    45 1   
@<TRIPOS>SUBSTRUCTURE
     1 ENW         1 TEMP              0 ****  ****    0 ROOT
