@<TRIPOS>MOLECULE
ENW
   45    44     1     0     0
SMALL
abcg2


@<TRIPOS>ATOM
      1 C2           5.5420     0.4910    -1.3050 c          1 ENW       0.560100
      2 C3           5.7370     1.9810    -1.1570 c3         1 ENW       0.129600
      3 F4           6.3880     2.4660    -2.2680 f          1 ENW      -0.235000
      4 O4           4.9290     0.0060    -0.2400 os         1 ENW      -0.460100
      5 O5           5.8960    -0.1530    -2.2550 o          1 ENW      -0.447000
      6 C6           4.6520    -1.4000    -0.2040 c3         1 ENW       0.140600
      7 C7           3.8950    -1.6830     1.0750 c3         1 ENW       0.104000
      8 N8           2.6190    -1.0130     1.1580 ns         1 ENW      -0.505900
      9 C9           1.5210    -1.4540     0.5210 c          1 ENW       0.600100
     10 C10          0.2880    -0.5910     0.6830 c3         1 ENW      -0.177400
     11 O11          1.5160    -2.4740    -0.1540 o          1 ENW      -0.595100
     12 H3           4.7700     2.4770    -1.0540 h1         1 ENW       0.070200
     13 H3A          6.3290     2.1940    -0.2650 h1         1 ENW       0.070200
     14 H6           4.0650    -1.6890    -1.0770 h1         1 ENW       0.068200
     15 H6A          5.5840    -1.9680    -0.2100 h1         1 ENW       0.068200
     16 H7           3.7530    -2.7620     1.1470 h1         1 ENW       0.066200
     17 H7A          4.4890    -1.3820     1.9380 h1         1 ENW       0.066200
     18 HN8          2.5650    -0.1600     1.6880 hn         1 ENW       0.318500
     19 C71         -0.9810    -1.4260     0.6480 c3         1 ENW       0.111000
     20 H10          0.3420    -0.0130     1.6090 hc         1 ENW       0.060200
     21 H10A         0.2760     0.1350    -0.1370 hc         1 ENW       0.060200
     22 N2          -2.1410    -0.5720     0.7870 ns         1 ENW      -0.502900
     23 C8          -3.3810    -1.0120     0.5360 c          1 ENW       0.579100
     24 H101        -2.0390     0.2940     1.2920 hn         1 ENW       0.315500
     25 C91         -4.5170    -0.0220     0.8130 c3         1 ENW       0.089300
     26 O41         -3.6130    -2.1370     0.1140 o          1 ENW      -0.596100
     27 O51         -4.1190     0.9660     1.7390 oh         1 ENW      -0.668000
     28 C101        -5.1410     0.5730    -0.4770 c3         1 ENW      -0.065000
     29 C11         -6.3610     1.3920    -0.0290 c3         1 ENW       0.164600
     30 C12         -4.1370     1.4600    -1.2200 c3         1 ENW      -0.087600
     31 C13         -5.6130    -0.5380    -1.4180 c3         1 ENW      -0.087600
     32 O6          -6.9760     1.9840    -1.1490 oh         1 ENW      -0.659000
     33 H11         -1.0450    -1.9640    -0.2960 h1         1 ENW       0.069200
     34 H12         -0.9590    -2.1760     1.4460 h1         1 ENW       0.069200
     35 H13         -5.2960    -0.6130     1.3090 h1         1 ENW       0.094700
     36 H14         -3.8550     1.7690     1.2780 ho         1 ENW       0.449000
     37 H15         -7.0530     0.7170     0.4970 h1         1 ENW       0.022200
     38 H16         -6.0600     2.1600     0.6930 h1         1 ENW       0.022200
     39 H17         -3.2280     0.9120    -1.4730 hc         1 ENW       0.045533
     40 H18         -4.5680     1.8180    -2.1540 hc         1 ENW       0.045533
     41 H19         -3.8420     2.3510    -0.6590 hc         1 ENW       0.045533
     42 H20         -6.2420    -1.2660    -0.9030 hc         1 ENW       0.045533
     43 H21         -6.1980    -0.1070    -2.2300 hc         1 ENW       0.045533
     44 H22         -4.7780    -1.0730    -1.8660 hc         1 ENW       0.045533
     45 H23         -7.7290     2.4930    -0.8380 ho         1 ENW       0.446000
@<TRIPOS>BOND
     1     1     2 1   
     2     1     4 1   
     3     1     5 2   
     4     2     3 1   
     5     2    12 1   
     6     2    13 1   
     7     4     6 1   
     8     6     7 1   
     9     6    14 1   
    10     6    15 1   
    11     7     8 1   
    12     7    16 1   
    13     7    17 1   
    14     8     9 1   
    15     8    18 1   
    16     9    10 1   
    17     9    11 2   
    18    10    19 1   
    19    10    20 1   
    20    10    21 1   
    21    19    22 1   
    22    19    33 1   
    23    19    34 1   
    24    22    23 1   
    25    22    24 1   
    26    23    25 1   
    27    23    26 2   
    28    25    27 1   
    29    25    28 1   
    30    25    35 1   
    31    27    36 1   
    32    28    29 1   
    33    28    30 1   
    34    28    31 1   
    35    29    32 1   
    36    29    37 1   
    37    29    38 1   
    38    30    39 1   
    39    30    40 1   
    40    30    41 1   
    41    31    42 1   
    42    31    43 1   
    43    31    44 1   
    44    32    45 1   
@<TRIPOS>SUBSTRUCTURE
     1 ENW         1 TEMP              0 ****  ****    0 ROOT
