@<TRIPOS>MOLECULE
ENX
   91    91     1     0     0
SMALL
No Charge or Current Charge


@<TRIPOS>ATOM
      1 C1         -11.9090    -4.2330    -3.3150 c3         1 ENX      -0.087100
      2 C2         -12.7820    -3.2910    -2.4660 c3         1 ENX      -0.047200
      3 C3         -11.9830    -2.5960    -1.3840 c2         1 ENX      -0.183200
      4 C4         -11.7540    -1.2730    -1.3180 c2         1 ENX      -0.256200
      5 C5         -10.9440    -0.5580    -0.2470 c3         1 ENX       0.235500
      6 C6          -9.4240    -0.8610    -0.3490 c3         1 ENX       0.107300
      7 C7          -8.5800    -0.1430     0.7470 c3         1 ENX       0.179300
      8 C8          -7.1260    -0.6570     0.8260 c3         1 ENX      -0.218400
      9 C9          -6.4040    -0.0630     2.0420 c          1 ENX       0.559100
     10 C10         -5.3900     1.0980     1.7780 c3         1 ENX       0.034300
     11 C11         -4.1090     0.5830     1.0530 c3         1 ENX       0.168300
     12 C12         -3.2060     1.7070     0.4490 c3         1 ENX      -0.043500
     13 C13         -1.9190     1.1440    -0.1500 c2         1 ENX       0.072800
     14 C14         -0.6830     1.4490     0.3120 ce         1 ENX      -0.153000
     15 C15          0.5840     0.9380    -0.2380 ce         1 ENX      -0.196000
     16 C16          1.8140     1.2630     0.2430 cf         1 ENX      -0.140000
     17 C17          3.0680     0.7480    -0.3030 cf         1 ENX      -0.202000
     18 C18          4.3370     1.0710     0.0850 ce         1 ENX      -0.038200
     19 C19          5.4930     0.4440    -0.5870 ce         1 ENX      -0.189000
     20 C20          6.7970     0.4720    -0.1870 cf         1 ENX      -0.158000
     21 C21          7.8860    -0.1800    -0.9010 cf         1 ENX      -0.150000
     22 C22          9.1900    -0.1620    -0.5010 ce         1 ENX      -0.226200
     23 C23         10.3150    -0.8230    -1.2190 c          1 ENX       0.604300
     24 O24         11.4950    -0.6320    -0.5530 os         1 ENX      -0.428100
     25 C25         12.7600    -1.0490    -1.1250 c6         1 ENX       0.177300
     26 C26         13.7430    -1.4320     0.0140 c6         1 ENX      -0.055400
     27 C27         14.2040    -0.1970     0.8440 c6         1 ENX      -0.192700
     28 C28         15.1580    -0.5930     1.9970 c          1 ENX       0.720000
     29 O29        -11.4030    -1.0300     1.0350 os         1 ENX      -0.475100
     30 Cl30        -8.7960    -0.4470    -2.0210 cl         1 ENX      -0.284000
     31 O31         -8.5400     1.2700     0.4950 oh         1 ENX      -0.639000
     32 O32         -5.0070     1.8090     2.9940 oh         1 ENX      -0.658000
     33 O33         -3.3540    -0.1640     2.0150 oh         1 ENX      -0.650000
     34 C34         -3.9410     2.5960    -0.5880 c3         1 ENX      -0.085100
     35 Cl35        -2.1750     0.0700    -1.5130 cl         1 ENX      -0.219000
     36 C36          4.6350     2.1200     1.1530 c3         1 ENX      -0.060900
     37 O37         10.1860    -1.4700    -2.2500 o          1 ENX      -0.506000
     38 C38         13.3980     0.0540    -2.0470 c6         1 ENX       0.149300
     39 C39         13.8450     1.2860    -1.2160 c6         1 ENX      -0.108400
     40 C40         14.8240     0.8840    -0.0860 c6         1 ENX      -0.053400
     41 O41         12.5070     0.4870    -3.0880 oh         1 ENX      -0.668000
     42 C42        -12.6050    -0.5870     1.4920 c          1 ENX       0.649100
     43 N43        -12.8860    -1.1750     2.6610 nt         1 ENX      -0.601000
     44 O44        -13.3340     0.2270     0.9550 o          1 ENX      -0.532000
     45 O45         -6.6390    -0.4800     3.1710 o          1 ENX      -0.513100
     46 O46         16.2250    -1.1180     1.7140 o          1 ENX      -0.734500
     47 O47         14.7970    -0.3690     3.1420 o          1 ENX      -0.734500
     48 H1C1       -11.1020    -3.6740    -3.8030 hc         1 ENX       0.035033
     49 H1C2       -11.4610    -5.0140    -2.6890 hc         1 ENX       0.035033
     50 H1C3       -12.5120    -4.7180    -4.0920 hc         1 ENX       0.035033
     51 H2C1       -13.2520    -2.5540    -3.1290 hc         1 ENX       0.046700
     52 H2C2       -13.5980    -3.8680    -2.0150 hc         1 ENX       0.046700
     53 H3         -11.5860    -3.2660    -0.6170 ha         1 ENX       0.172000
     54 H4         -12.1510    -0.6040    -2.0830 ha         1 ENX       0.189000
     55 H5         -11.0840     0.5290    -0.3350 h1         1 ENX       0.093700
     56 H6          -9.2930    -1.9440    -0.2360 h1         1 ENX       0.093700
     57 H7          -9.0560    -0.3400     1.7200 h1         1 ENX       0.109700
     58 H8C1        -7.1480    -1.7470     0.9380 hc         1 ENX       0.083700
     59 H8C2        -6.6050    -0.3860    -0.0980 hc         1 ENX       0.083700
     60 H10         -5.9190     1.7820     1.1020 h1         1 ENX       0.073700
     61 H11         -4.4100    -0.0740     0.2260 h1         1 ENX       0.082700
     62 H12         -2.9300     2.3730     1.2770 hc         1 ENX       0.072700
     63 H14         -0.5910     2.1270     1.1610 ha         1 ENX       0.176000
     64 H15          0.5260     0.2550    -1.0870 ha         1 ENX       0.187000
     65 H16          1.8640     1.9430     1.0950 ha         1 ENX       0.169000
     66 H17          2.9620     0.0090    -1.1000 ha         1 ENX       0.175000
     67 H19          5.2620    -0.1170    -1.4940 ha         1 ENX       0.176000
     68 H20          7.0660     1.0000     0.7300 ha         1 ENX       0.176000
     69 H21          7.6290    -0.7180    -1.8180 ha         1 ENX       0.191000
     70 H22          9.4670     0.3680     0.4080 ha         1 ENX       0.198000
     71 H25         12.5930    -1.9560    -1.7230 h1         1 ENX       0.062700
     72 H261        13.2670    -2.1700     0.6750 hc         1 ENX       0.057200
     73 H262        14.6180    -1.9340    -0.4220 hc         1 ENX       0.057200
     74 H27         13.3130     0.2440     1.3130 hc         1 ENX       0.041700
     75 H31         -8.4210     1.3840    -0.4740 ho         1 ENX       0.447000
     76 H32         -5.8270     1.9830     3.5140 ho         1 ENX       0.472000
     77 H33         -3.4730     0.3350     2.8550 ho         1 ENX       0.453000
     78 H341        -4.7240     3.1980    -0.1140 hc         1 ENX       0.042367
     79 H342        -3.2370     3.2920    -1.0610 hc         1 ENX       0.042367
     80 H343        -4.4020     1.9890    -1.3770 hc         1 ENX       0.042367
     81 H361         4.7320     1.6590     2.1430 hc         1 ENX       0.045033
     82 H362         5.5610     2.6680     0.9450 hc         1 ENX       0.045033
     83 H363         3.8530     2.8850     1.2160 hc         1 ENX       0.045033
     84 H38         14.2970    -0.3830    -2.5070 h1         1 ENX       0.032700
     85 H391        14.3310     2.0230    -1.8710 hc         1 ENX       0.029700
     86 H392        12.9680     1.7860    -0.7820 hc         1 ENX       0.029700
     87 H401        15.0930     1.7720     0.5030 hc         1 ENX       0.043200
     88 H402        15.7590     0.5100    -0.5260 hc         1 ENX       0.043200
     89 H41         12.9710     1.2010    -3.5750 ho         1 ENX       0.432000
     90 H431       -12.2350    -1.8400     3.0470 hn         1 ENX       0.332000
     91 H432       -13.7460    -0.9520     3.1370 hn         1 ENX       0.332000
@<TRIPOS>BOND
     1     1     2 1   
     2     1    48 1   
     3     1    49 1   
     4     1    50 1   
     5     2     3 1   
     6     2    51 1   
     7     2    52 1   
     8     3     4 2   
     9     3    53 1   
    10     4     5 1   
    11     4    54 1   
    12     5     6 1   
    13     5    29 1   
    14     5    55 1   
    15     6     7 1   
    16     6    30 1   
    17     6    56 1   
    18     7     8 1   
    19     7    31 1   
    20     7    57 1   
    21     8     9 1   
    22     8    58 1   
    23     8    59 1   
    24     9    10 1   
    25     9    45 2   
    26    10    11 1   
    27    10    32 1   
    28    10    60 1   
    29    11    12 1   
    30    11    33 1   
    31    11    61 1   
    32    12    13 1   
    33    12    34 1   
    34    12    62 1   
    35    13    14 2   
    36    13    35 1   
    37    14    15 1   
    38    14    63 1   
    39    15    16 2   
    40    15    64 1   
    41    16    17 1   
    42    16    65 1   
    43    17    18 2   
    44    17    66 1   
    45    18    19 1   
    46    18    36 1   
    47    19    20 2   
    48    19    67 1   
    49    20    21 1   
    50    20    68 1   
    51    21    22 2   
    52    21    69 1   
    53    22    23 1   
    54    22    70 1   
    55    23    24 1   
    56    23    37 2   
    57    24    25 1   
    58    25    26 1   
    59    25    38 1   
    60    25    71 1   
    61    26    27 1   
    62    26    72 1   
    63    26    73 1   
    64    27    28 1   
    65    27    40 1   
    66    27    74 1   
    67    28    46 1   
    68    28    47 1   
    69    29    42 1   
    70    31    75 1   
    71    32    76 1   
    72    33    77 1   
    73    34    78 1   
    74    34    79 1   
    75    34    80 1   
    76    36    81 1   
    77    36    82 1   
    78    36    83 1   
    79    38    39 1   
    80    38    41 1   
    81    38    84 1   
    82    39    40 1   
    83    39    85 1   
    84    39    86 1   
    85    40    87 1   
    86    40    88 1   
    87    41    89 1   
    88    42    43 1   
    89    42    44 2   
    90    43    90 1   
    91    43    91 1   
@<TRIPOS>SUBSTRUCTURE
     1 ENX         1 TEMP              0 ****  ****    0 ROOT
