@<TRIPOS>MOLECULE
ENX
   91    91     1     0     0
SMALL
bcc


@<TRIPOS>ATOM
      1 C1          -9.5560    -5.3040    -2.8260 c3         1 ENX      -0.087100
      2 C2         -10.7880    -4.6520    -2.2010 c3         1 ENX      -0.047200
      3 C3         -10.4200    -3.7160    -1.0940 c2         1 ENX      -0.133200
      4 C4         -10.6320    -2.4060    -1.1220 c2         1 ENX      -0.206200
      5 C5         -10.2390    -1.4440    -0.0360 c3         1 ENX       0.212300
      6 C6          -8.8900    -0.7690    -0.3170 c3         1 ENX       0.030700
      7 C7          -8.4710     0.2440     0.7480 c3         1 ENX       0.156100
      8 C8          -7.0860     0.8150     0.4610 c3         1 ENX      -0.218400
      9 C9          -6.5550     1.6640     1.5830 c          1 ENX       0.559100
     10 C10         -5.5860     2.7740     1.2130 c3         1 ENX       0.011100
     11 C11         -4.3770     2.1730     0.4840 c3         1 ENX       0.145100
     12 C12         -3.3540     3.2460     0.0690 c3         1 ENX      -0.043500
     13 C13         -2.1420     2.5990    -0.5290 c2         1 ENX      -0.002800
     14 C14         -0.9170     2.6320     0.0080 ce         1 ENX      -0.103000
     15 C15          0.2860     2.0420    -0.5180 ce         1 ENX      -0.146000
     16 C16          1.4740     2.1220     0.1180 cf         1 ENX      -0.090000
     17 C17          2.6720     1.5320    -0.4100 cf         1 ENX      -0.152000
     18 C18          3.9040     1.5320     0.1580 ce         1 ENX      -0.038200
     19 C19          4.9740     0.8800    -0.5650 ce         1 ENX      -0.139000
     20 C20          6.2500     0.7580    -0.1420 cf         1 ENX      -0.108000
     21 C21          7.2600     0.1090    -0.9330 cf         1 ENX      -0.100000
     22 C22          8.5320    -0.0530    -0.5320 ce         1 ENX      -0.176200
     23 C23          9.5280    -0.7080    -1.3920 c          1 ENX       0.653300
     24 O24         10.6760    -0.8550    -0.7440 os         1 ENX      -0.404900
     25 C25         11.8480    -1.3230    -1.4280 c6         1 ENX       0.154100
     26 C26         12.5310    -2.3650    -0.5570 c6         1 ENX      -0.055400
     27 C27         13.0430    -1.7980     0.7620 c6         1 ENX      -0.192700
     28 C28         13.7690    -2.8410     1.6380 c          1 ENX       0.930600
     29 O29        -10.0500    -2.1050     1.2060 os         1 ENX      -0.451900
     30 CL30        -9.0310     0.0750    -1.9090 cl         1 ENX      -0.207400
     31 O31         -9.4270     1.2530     0.9300 oh         1 ENX      -0.576800
     32 O32         -5.1650     3.4700     2.3470 oh         1 ENX      -0.595800
     33 O33         -3.7930     1.1660     1.2700 oh         1 ENX      -0.587800
     34 C34         -3.9680     4.2840    -0.8720 c3         1 ENX      -0.085100
     35 CL35        -2.4260     1.7690    -2.0340 cl         1 ENX      -0.143400
     36 C36          4.2200     2.1620     1.4800 c3         1 ENX      -0.060900
     37 O37          9.3230    -1.0800    -2.5260 o          1 ENX      -0.555000
     38 C38         12.7580    -0.1260    -1.6690 c6         1 ENX       0.126100
     39 C39         13.2490     0.4680    -0.3540 c6         1 ENX      -0.108400
     40 C40         13.9440    -0.5890     0.5010 c6         1 ENX      -0.053400
     41 O41         12.0550     0.8040    -2.4610 oh         1 ENX      -0.605800
     42 C42        -11.1460    -2.3780     1.9400 c          1 ENX       0.765100
     43 N43        -10.8180    -3.0530     3.0470 nt         1 ENX      -0.668000
     44 O44        -12.2680    -2.0460     1.6220 o          1 ENX      -0.581000
     45 O45         -6.8620     1.4990     2.7410 o          1 ENX      -0.513100
     46 O46         13.8680    -4.0050     1.2020 o          1 ENX      -0.839800
     47 O47         14.2040    -2.4260     2.7330 o          1 ENX      -0.839800
     48 H1C1        -8.9110    -4.5550    -3.2860 hc         1 ENX       0.035033
     49 H1C2        -8.9660    -5.8360    -2.0790 hc         1 ENX       0.035033
     50 H1C3        -9.8410    -6.0210    -3.5960 hc         1 ENX       0.035033
     51 H2C1       -11.3560    -4.1200    -2.9670 hc         1 ENX       0.046700
     52 H2C2       -11.4430    -5.4360    -1.8090 hc         1 ENX       0.046700
     53 H3          -9.9340    -4.1710    -0.2340 ha         1 ENX       0.122000
     54 H4         -11.1120    -1.9600    -1.9860 ha         1 ENX       0.139000
     55 H5         -11.0030    -0.6680     0.0590 h1         1 ENX       0.093700
     56 H6          -8.1160    -1.5280    -0.4430 h1         1 ENX       0.093700
     57 H7          -8.4220    -0.3060     1.6900 h1         1 ENX       0.109700
     58 H8C1        -6.3700    -0.0030     0.3200 hc         1 ENX       0.083700
     59 H8C2        -7.0780     1.3840    -0.4720 hc         1 ENX       0.083700
     60 H10         -6.1310     3.4370     0.5230 h1         1 ENX       0.073700
     61 H11         -4.7350     1.6810    -0.4260 h1         1 ENX       0.082700
     62 H12         -3.0030     3.7590     0.9700 hc         1 ENX       0.072700
     63 H14         -0.8300     3.1690     0.9470 ha         1 ENX       0.126000
     64 H15          0.2300     1.5080    -1.4610 ha         1 ENX       0.137000
     65 H16          1.5220     2.6550     1.0620 ha         1 ENX       0.119000
     66 H17          2.5630     1.0350    -1.3710 ha         1 ENX       0.125000
     67 H19          4.7130     0.4590    -1.5320 ha         1 ENX       0.126000
     68 H20          6.5520     1.1550     0.8220 ha         1 ENX       0.126000
     69 H21          6.9620    -0.2650    -1.9080 ha         1 ENX       0.141000
     70 H22          8.8560     0.3010     0.4400 ha         1 ENX       0.148000
     71 H25         11.5600    -1.7670    -2.3830 h1         1 ENX       0.062700
     72 H261        11.8450    -3.1970    -0.3900 hc         1 ENX       0.057200
     73 H262        13.3690    -2.7720    -1.1310 hc         1 ENX       0.057200
     74 H27         12.1830    -1.4430     1.3450 hc         1 ENX       0.041700
     75 H31         -9.5190     1.7490     0.1080 ho         1 ENX       0.408000
     76 H32         -5.6420     3.1110     3.1080 ho         1 ENX       0.433000
     77 H33         -3.4720     1.5660     2.0870 ho         1 ENX       0.414000
     78 H341        -4.6720     4.9240    -0.3420 hc         1 ENX       0.042367
     79 H342        -3.1960     4.9300    -1.2900 hc         1 ENX       0.042367
     80 H343        -4.4990     3.8150    -1.7010 hc         1 ENX       0.042367
     81 H361         4.6030     1.4190     2.1820 hc         1 ENX       0.045033
     82 H362         4.9930     2.9250     1.3720 hc         1 ENX       0.045033
     83 H363         3.3570     2.6330     1.9440 hc         1 ENX       0.045033
     84 H38         13.6330    -0.5140    -2.2140 h1         1 ENX       0.032700
     85 H391        13.9390     1.2910    -0.5630 hc         1 ENX       0.029700
     86 H392        12.4030     0.8950     0.1920 hc         1 ENX       0.029700
     87 H401        14.2620    -0.1510     1.4480 hc         1 ENX       0.043200
     88 H402        14.8560    -0.9210    -0.0100 hc         1 ENX       0.043200
     89 H41         12.5930     1.5970    -2.5370 ho         1 ENX       0.393000
     90 H431        -9.8660    -3.2910     3.2700 hn         1 ENX       0.332000
     91 H432       -11.5410    -3.3120     3.6940 hn         1 ENX       0.332000
@<TRIPOS>BOND
     1     1     2 1   
     2     1    48 1   
     3     1    49 1   
     4     1    50 1   
     5     2     3 1   
     6     2    51 1   
     7     2    52 1   
     8     3     4 2   
     9     3    53 1   
    10     4     5 1   
    11     4    54 1   
    12     5     6 1   
    13     5    29 1   
    14     5    55 1   
    15     6     7 1   
    16     6    30 1   
    17     6    56 1   
    18     7     8 1   
    19     7    31 1   
    20     7    57 1   
    21     8     9 1   
    22     8    58 1   
    23     8    59 1   
    24     9    10 1   
    25     9    45 2   
    26    10    11 1   
    27    10    32 1   
    28    10    60 1   
    29    11    12 1   
    30    11    33 1   
    31    11    61 1   
    32    12    13 1   
    33    12    34 1   
    34    12    62 1   
    35    13    14 2   
    36    13    35 1   
    37    14    15 1   
    38    14    63 1   
    39    15    16 2   
    40    15    64 1   
    41    16    17 1   
    42    16    65 1   
    43    17    18 2   
    44    17    66 1   
    45    18    19 1   
    46    18    36 1   
    47    19    20 2   
    48    19    67 1   
    49    20    21 1   
    50    20    68 1   
    51    21    22 2   
    52    21    69 1   
    53    22    23 1   
    54    22    70 1   
    55    23    24 1   
    56    23    37 2   
    57    24    25 1   
    58    25    26 1   
    59    25    38 1   
    60    25    71 1   
    61    26    27 1   
    62    26    72 1   
    63    26    73 1   
    64    27    28 1   
    65    27    40 1   
    66    27    74 1   
    67    28    46 1   
    68    28    47 1   
    69    29    42 1   
    70    31    75 1   
    71    32    76 1   
    72    33    77 1   
    73    34    78 1   
    74    34    79 1   
    75    34    80 1   
    76    36    81 1   
    77    36    82 1   
    78    36    83 1   
    79    38    39 1   
    80    38    41 1   
    81    38    84 1   
    82    39    40 1   
    83    39    85 1   
    84    39    86 1   
    85    40    87 1   
    86    40    88 1   
    87    41    89 1   
    88    42    43 1   
    89    42    44 2   
    90    43    90 1   
    91    43    91 1   
@<TRIPOS>SUBSTRUCTURE
     1 ENX         1 TEMP              0 ****  ****    0 ROOT
