@<TRIPOS>MOLECULE
ENY
   31    32     1     0     0
SMALL
No Charge or Current Charge


@<TRIPOS>ATOM
      1 C10         33.8780    77.2860    61.7470 ca         1 ENY      -0.130600
      2 C13         36.6590    79.6700    63.0590 ce         1 ENY       0.167900
      3 C15         37.3910    80.0410    64.3740 c          1 ENY       0.704200
      4 C20         30.9000    74.2700    61.7470 ca         1 ENY      -0.150000
      5 C01         27.8070    73.2360    59.9380 c3         1 ENY       0.154900
      6 C03         29.8570    74.3020    60.8070 ca         1 ENY       0.128100
      7 C04         29.8070    75.3450    59.8560 ca         1 ENY      -0.194000
      8 C05         30.7960    76.3440    59.8540 ca         1 ENY      -0.052000
      9 C06         31.8390    76.3100    60.7980 ca         1 ENY      -0.083000
     10 C07         31.8900    75.2690    61.7470 ca         1 ENY       0.010000
     11 C08         32.9350    75.2330    62.6870 ca         1 ENY      -0.139000
     12 C09         33.9240    76.2320    62.6870 ca         1 ENY      -0.048000
     13 C11         34.9290    78.3690    61.7200 c          1 ENY       0.588900
     14 C12         35.6580    78.7400    62.9620 cf         1 ENY      -0.529200
     15 C19         32.8310    77.3090    60.7980 ca         1 ENY      -0.048000
     16 O02         28.9140    73.2950    60.8560 os         1 ENY      -0.357100
     17 O14         37.0380    80.3150    61.9220 oh         1 ENY      -0.524100
     18 O16         37.0650    79.4710    65.4110 o          1 ENY      -0.684000
     19 O17         38.2760    80.8910    64.3500 o          1 ENY      -0.684000
     20 O18         35.2000    78.9580    60.6800 o          1 ENY      -0.666100
     21 H2          30.9360    73.4660    62.4770 ha         1 ENY       0.122000
     22 H3          27.1830    72.3600    60.1520 h1         1 ENY       0.036700
     23 H4          27.1790    74.1320    60.0260 h1         1 ENY       0.036700
     24 H5          28.1630    73.1550    58.9030 h1         1 ENY       0.036700
     25 H6          29.0140    75.3970    59.1160 ha         1 ENY       0.107000
     26 H7          30.7500    77.1440    59.1170 ha         1 ENY       0.112000
     27 H8          32.9860    74.4290    63.4170 ha         1 ENY       0.110000
     28 H9          34.7330    76.1660    63.4110 ha         1 ENY       0.135000
     29 H10         35.3500    78.2380    63.8750 ha         1 ENY       0.211000
     30 H12         32.7870    78.1100    60.0630 ha         1 ENY       0.131000
     31 H13         36.4220    79.9260    61.2440 ho         1 ENY       0.497000
@<TRIPOS>BOND
     1     1    12 ar  
     2     1    13 1   
     3     1    15 ar  
     4     2     3 1   
     5     2    14 2   
     6     2    17 1   
     7     3    18 1   
     8     3    19 1   
     9     4     6 ar  
    10     4    10 ar  
    11     4    21 1   
    12     5    16 1   
    13     5    22 1   
    14     5    23 1   
    15     5    24 1   
    16     6     7 ar  
    17     6    16 1   
    18     7     8 ar  
    19     7    25 1   
    20     8     9 ar  
    21     8    26 1   
    22     9    10 ar  
    23     9    15 ar  
    24    10    11 ar  
    25    11    12 ar  
    26    11    27 1   
    27    12    28 1   
    28    13    14 1   
    29    13    20 2   
    30    14    29 1   
    31    15    30 1   
    32    17    31 1   
@<TRIPOS>SUBSTRUCTURE
     1 ENY         1 TEMP              0 ****  ****    0 ROOT
