@<TRIPOS>MOLECULE
ENY
   31    32     1     0     0
SMALL
abcg2


@<TRIPOS>ATOM
      1 C10         33.8160    77.3220    61.8400 ca         1 ENY      -0.130600
      2 C13         36.6030    79.6220    62.9830 ce         1 ENY       0.167900
      3 C15         37.5050    79.8980    64.2010 c          1 ENY       0.704200
      4 C20         30.8580    74.2900    61.7760 ca         1 ENY      -0.150000
      5 C01         27.9340    73.2670    59.8530 c3         1 ENY       0.154900
      6 C03         29.8750    74.3100    60.8060 ca         1 ENY       0.128100
      7 C04         29.8580    75.3390    59.8310 ca         1 ENY      -0.194000
      8 C05         30.8190    76.3150    59.8520 ca         1 ENY      -0.052000
      9 C06         31.8390    76.3240    60.8320 ca         1 ENY      -0.083000
     10 C07         31.8500    75.2850    61.8140 ca         1 ENY       0.010000
     11 C08         32.8740    75.3010    62.7990 ca         1 ENY      -0.139000
     12 C09         33.8190    76.2890    62.8180 ca         1 ENY      -0.048000
     13 C11         34.8330    78.4010    61.8260 c          1 ENY       0.588900
     14 C12         35.6480    78.6430    62.9840 cf         1 ENY      -0.529200
     15 C19         32.8370    77.3180    60.8680 ca         1 ENY      -0.048000
     16 O02         28.9570    73.3130    60.8500 os         1 ENY      -0.357100
     17 O14         36.8210    80.3830    61.9210 oh         1 ENY      -0.524100
     18 O16         37.1410    79.3730    65.2770 o          1 ENY      -0.684000
     19 O17         38.5100    80.6100    63.9890 o          1 ENY      -0.684000
     20 O18         34.9610    79.1100    60.7930 o          1 ENY      -0.666100
     21 H2          30.8580    73.4960    62.5130 ha         1 ENY       0.122000
     22 H3          27.3430    72.3830    60.0790 h1         1 ENY       0.036700
     23 H4          27.2990    74.1540    59.9010 h1         1 ENY       0.036700
     24 H5          28.3640    73.1760    58.8540 h1         1 ENY       0.036700
     25 H6          29.0910    75.3590    59.0710 ha         1 ENY       0.107000
     26 H7          30.8040    77.1010    59.1070 ha         1 ENY       0.112000
     27 H8          32.8960    74.5120    63.5410 ha         1 ENY       0.110000
     28 H9          34.5890    76.2650    63.5760 ha         1 ENY       0.135000
     29 H10         35.5180    78.0750    63.8880 ha         1 ENY       0.211000
     30 H12         32.8280    78.1000    60.1210 ha         1 ENY       0.131000
     31 H13         36.1460    80.0750    61.2350 ho         1 ENY       0.497000
@<TRIPOS>BOND
     1     1    12 ar  
     2     1    13 1   
     3     1    15 ar  
     4     2     3 1   
     5     2    14 2   
     6     2    17 1   
     7     3    18 1   
     8     3    19 1   
     9     4     6 ar  
    10     4    10 ar  
    11     4    21 1   
    12     5    16 1   
    13     5    22 1   
    14     5    23 1   
    15     5    24 1   
    16     6     7 ar  
    17     6    16 1   
    18     7     8 ar  
    19     7    25 1   
    20     8     9 ar  
    21     8    26 1   
    22     9    10 ar  
    23     9    15 ar  
    24    10    11 ar  
    25    11    12 ar  
    26    11    27 1   
    27    12    28 1   
    28    13    14 1   
    29    13    20 2   
    30    14    29 1   
    31    15    30 1   
    32    17    31 1   
@<TRIPOS>SUBSTRUCTURE
     1 ENY         1 TEMP              0 ****  ****    0 ROOT
