@<TRIPOS>MOLECULE
ENZ
   34    36     1     0     0
SMALL
No Charge or Current Charge


@<TRIPOS>ATOM
      1 CAA          1.3340     2.9850    -0.2760 c3         1 ENZ      -0.094100
      2 CAC         -2.5000    -0.0270    -0.1630 ca         1 ENZ       0.502900
      3 CAD         -3.1000     0.4090     1.0330 ca         1 ENZ      -0.183000
      4 CAF         -4.4220     0.0330     1.3140 ca         1 ENZ      -0.058000
      5 CAG         -4.4200    -1.1460    -0.8030 ca         1 ENZ       0.368900
      6 CAH         -5.0900    -0.7640     0.3720 ca         1 ENZ      -0.196000
      7 CAK         -0.1040    -0.5270    -0.7080 c          1 ENZ       0.566000
      8 CAL          0.5750     1.6730     0.0080 c5         1 ENZ       0.137500
      9 CAM          1.0880     0.4310    -0.8000 c5         1 ENZ      -0.138400
     10 CAN          2.3810    -0.0670    -0.1490 ca         1 ENZ      -0.066300
     11 CAO          2.3840    -0.6200     1.1510 ca         1 ENZ      -0.094500
     12 CAP          3.5990     0.0250    -0.8510 ca         1 ENZ      -0.094500
     13 CAQ          3.5820    -1.0680     1.7340 ca         1 ENZ      -0.108500
     14 CAR          4.7980    -0.4220    -0.2680 ca         1 ENZ      -0.108500
     15 CAS          4.7900    -0.9690     1.0250 ca         1 ENZ      -0.103000
     16 NAE         -3.1460    -0.7850    -1.0760 nb         1 ENZ      -0.689000
     17 NAI         -1.1620     0.3550    -0.4980 n          1 ENZ      -0.315700
     18 NAJ         -0.8540     1.7730    -0.3950 n7         1 ENZ      -0.568400
     19 H1           1.3080     3.2430    -1.3410 hc         1 ENZ       0.048700
     20 H2           0.8980     3.8190     0.2860 hc         1 ENZ       0.048700
     21 H3           2.3860     2.8990     0.0210 hc         1 ENZ       0.048700
     22 H4          -2.5390     1.0280     1.7270 ha         1 ENZ       0.141000
     23 H5          -4.9130     0.3500     2.2320 ha         1 ENZ       0.117000
     24 H6          -4.9210    -1.7610    -1.5510 h4         1 ENZ       0.022100
     25 H7          -6.1150    -1.0820     0.5400 ha         1 ENZ       0.125000
     26 H8           0.6300     1.4740     1.0890 h1         1 ENZ       0.088700
     27 H9           1.1970     0.7220    -1.8510 hc         1 ENZ       0.081700
     28 H10          1.4570    -0.7060     1.7130 ha         1 ENZ       0.113000
     29 H11          3.6190     0.4490    -1.8530 ha         1 ENZ       0.113000
     30 H12          3.5730    -1.4920     2.7360 ha         1 ENZ       0.114500
     31 H13          5.7320    -0.3440    -0.8200 ha         1 ENZ       0.114500
     32 H14          5.7170    -1.3160     1.4760 ha         1 ENZ       0.114000
     33 H15         -0.9230     2.1900    -1.3360 hn         1 ENZ       0.405000
     34 OAB         -0.1420    -1.7450    -0.5960 o          1 ENZ      -0.455000
@<TRIPOS>BOND
     1     1     8 1   
     2     1    19 1   
     3     1    20 1   
     4     1    21 1   
     5     2     3 ar  
     6     2    16 ar  
     7     2    17 1   
     8     3     4 ar  
     9     3    22 1   
    10     4     6 ar  
    11     4    23 1   
    12     5     6 ar  
    13     5    16 ar  
    14     5    24 1   
    15     6    25 1   
    16     7     9 1   
    17     7    17 1   
    18     7    34 2   
    19     8     9 1   
    20     8    18 1   
    21     8    26 1   
    22     9    10 1   
    23     9    27 1   
    24    10    11 ar  
    25    10    12 ar  
    26    11    13 ar  
    27    11    28 1   
    28    12    14 ar  
    29    12    29 1   
    30    13    15 ar  
    31    13    30 1   
    32    14    15 ar  
    33    14    31 1   
    34    15    32 1   
    35    17    18 1   
    36    18    33 1   
@<TRIPOS>SUBSTRUCTURE
     1 ENZ         1 TEMP              0 ****  ****    0 ROOT
