@<TRIPOS>MOLECULE
ENZ
   34    36     1     0     0
SMALL
abcg2


@<TRIPOS>ATOM
      1 CAA          1.2500     3.0540     0.0030 c3         1 ENZ      -0.094100
      2 CAC         -2.4760    -0.0110    -0.0890 ca         1 ENZ       0.502900
      3 CAD         -3.3700     0.8650     0.5360 ca         1 ENZ      -0.183000
      4 CAF         -4.6600     0.4220     0.7530 ca         1 ENZ      -0.058000
      5 CAG         -4.0630    -1.6310    -0.2670 ca         1 ENZ       0.368900
      6 CAH         -5.0280    -0.8550     0.3480 ca         1 ENZ      -0.196000
      7 CAK         -0.0680    -0.3710    -0.6560 c          1 ENZ       0.566000
      8 CAL          0.6020     1.7110     0.2400 c5         1 ENZ       0.137500
      9 CAM          1.1320     0.5670    -0.6300 c5         1 ENZ      -0.138400
     10 CAN          2.4000    -0.0710    -0.1550 ca         1 ENZ      -0.066300
     11 CAO          2.4410    -0.7760     1.0470 ca         1 ENZ      -0.094500
     12 CAP          3.5730     0.0640    -0.8920 ca         1 ENZ      -0.094500
     13 CAQ          3.6280    -1.3330     1.4990 ca         1 ENZ      -0.108500
     14 CAR          4.7640    -0.4910    -0.4410 ca         1 ENZ      -0.108500
     15 CAS          4.7940    -1.1920     0.7560 ca         1 ENZ      -0.103000
     16 NAE         -2.8180    -1.2240    -0.4890 nb         1 ENZ      -0.689000
     17 NAI         -1.1610     0.3970    -0.3260 n          1 ENZ      -0.315700
     18 NAJ         -0.8300     1.7380    -0.0660 n7         1 ENZ      -0.568400
     19 H1           1.1640     3.3570    -1.0430 hc         1 ENZ       0.048700
     20 H2           0.7960     3.8250     0.6240 hc         1 ENZ       0.048700
     21 H3           2.3100     3.0050     0.2510 hc         1 ENZ       0.048700
     22 H4          -3.0600     1.8510     0.8440 ha         1 ENZ       0.141000
     23 H5          -5.3750     1.0750     1.2380 ha         1 ENZ       0.117000
     24 H6          -4.3010    -2.6320    -0.6080 h4         1 ENZ       0.022100
     25 H7          -6.0290    -1.2330     0.4980 ha         1 ENZ       0.125000
     26 H8           0.7080     1.4340     1.2940 h1         1 ENZ       0.088700
     27 H9           1.2720     0.9370    -1.6550 hc         1 ENZ       0.081700
     28 H10          1.5420    -0.8930     1.6410 ha         1 ENZ       0.113000
     29 H11          3.5560     0.6100    -1.8270 ha         1 ENZ       0.113000
     30 H12          3.6430    -1.8800     2.4330 ha         1 ENZ       0.114500
     31 H13          5.6660    -0.3740    -1.0260 ha         1 ENZ       0.114500
     32 H14          5.7200    -1.6280     1.1090 ha         1 ENZ       0.114000
     33 H15         -0.9730     2.2560    -0.9310 hn         1 ENZ       0.405000
     34 OAB         -0.0490    -1.5540    -0.8920 o          1 ENZ      -0.455000
@<TRIPOS>BOND
     1     1     8 1   
     2     1    19 1   
     3     1    20 1   
     4     1    21 1   
     5     2     3 ar  
     6     2    16 ar  
     7     2    17 1   
     8     3     4 ar  
     9     3    22 1   
    10     4     6 ar  
    11     4    23 1   
    12     5     6 ar  
    13     5    16 ar  
    14     5    24 1   
    15     6    25 1   
    16     7     9 1   
    17     7    17 1   
    18     7    34 2   
    19     8     9 1   
    20     8    18 1   
    21     8    26 1   
    22     9    10 1   
    23     9    27 1   
    24    10    11 ar  
    25    10    12 ar  
    26    11    13 ar  
    27    11    28 1   
    28    12    14 ar  
    29    12    29 1   
    30    13    15 ar  
    31    13    30 1   
    32    14    15 ar  
    33    14    31 1   
    34    15    32 1   
    35    17    18 1   
    36    18    33 1   
@<TRIPOS>SUBSTRUCTURE
     1 ENZ         1 TEMP              0 ****  ****    0 ROOT
