@<TRIPOS>MOLECULE
EO0
   54    57     1     0     0
SMALL
No Charge or Current Charge


@<TRIPOS>ATOM
      1 C10         -5.6200    25.8020    12.6790 ca         1 EO0       0.010000
      2 C13         -5.4920    27.9720    14.5270 ca         1 EO0      -0.153000
      3 C15         -7.7980    27.6520    17.5420 c3         1 EO0      -0.118100
      4 C20          0.0640    25.9910    11.9520 ca         1 EO0      -0.035300
      5 C21          0.9700    26.5600    12.8670 ca         1 EO0      -0.119500
      6 C22          1.8810    25.7500    13.5670 ca         1 EO0      -0.014000
      7 C24          0.9840    23.7820    12.4410 ca         1 EO0      -0.014000
      8 C01        -10.6140    24.6960    14.4050 ca         1 EO0      -0.081000
      9 C02         -9.9120    23.9860    13.3980 ca         1 EO0      -0.141000
     10 C03         -8.6050    24.3690    13.0200 ca         1 EO0      -0.051000
     11 C04         -8.0190    25.4740    13.6670 cp         1 EO0      -0.081000
     12 C05         -8.7270    26.1600    14.6520 ca         1 EO0      -0.003200
     13 C06        -10.0210    25.8030    15.0500 ca         1 EO0      -0.139000
     14 C07         -6.7090    26.1030    13.5180 cp         1 EO0      -0.099000
     15 C08         -6.6280    27.1670    14.4100 ca         1 EO0       0.021800
     16 C11         -4.4440    26.5960    12.7590 ca         1 EO0      -0.197600
     17 C12         -4.3940    27.6790    13.6900 ca         1 EO0      -0.060000
     18 C16         -3.2800    26.2600    11.8530 c          1 EO0       0.617700
     19 C19         -0.9260    26.8710    11.2030 c3         1 EO0       0.146300
     20 C23          1.8920    24.3550    13.3550 ca         1 EO0      -0.265500
     21 C25          0.0760    24.5980    11.7450 ca         1 EO0      -0.119500
     22 C27          2.0520    22.6660    15.6350 c3         1 EO0      -0.291400
     23 C30          1.4720    23.7690    16.5540 c3         1 EO0      -0.069100
     24 N09         -7.8630    27.1820    15.0790 na         1 EO0      -0.094600
     25 N18         -2.1640    27.0580    11.9620 ns         1 EO0      -0.511900
     26 O17         -3.3220    25.3300    11.0610 o          1 EO0      -0.598100
     27 O28          3.3760    22.1430    13.4200 o          1 EO0      -0.525500
     28 O29          4.1030    24.1410    14.8420 o          1 EO0      -0.525500
     29 S26          3.0460    23.3020    14.2600 sy         1 EO0       1.039500
     30 H101        -5.6900    24.9670    11.9840 ha         1 EO0       0.138000
     31 H131        -5.4500    28.7950    15.2370 ha         1 EO0       0.120000
     32 H152        -8.0680    28.3970    18.3000 hc         1 EO0       0.048033
     33 H151        -8.3110    26.7130    17.7830 hc         1 EO0       0.048033
     34 H153        -6.7170    27.4810    17.5950 hc         1 EO0       0.048033
     35 H211         0.9670    27.6340    13.0400 ha         1 EO0       0.119500
     36 H221         2.5700    26.2110    14.2730 ha         1 EO0       0.135500
     37 H241         0.9750    22.7060    12.2700 ha         1 EO0       0.135500
     38 H011       -11.6190    24.3850    14.6830 ha         1 EO0       0.112000
     39 H021       -10.3840    23.1360    12.9120 ha         1 EO0       0.116000
     40 H031        -8.0640    23.8220    12.2510 ha         1 EO0       0.120000
     41 H061       -10.5520    26.3510    15.8250 ha         1 EO0       0.117000
     42 H121        -3.5100    28.3040    13.7790 ha         1 EO0       0.107000
     43 H141        -7.6990    29.0970    15.9310 h1         1 EO0       0.057200
     44 H142        -9.2820    28.3340    16.1180 h1         1 EO0       0.057200
     45 H192        -1.1540    26.4290    10.2240 h1         1 EO0       0.061700
     46 H191        -0.4750    27.8560    11.0200 h1         1 EO0       0.061700
     47 H251        -0.6230    24.1460    11.0460 ha         1 EO0       0.119500
     48 H272         1.2400    22.0770    15.1930 h1         1 EO0       0.098700
     49 H271         2.7020    21.9970    16.2090 h1         1 EO0       0.098700
     50 H303         0.9050    23.3170    17.3770 hc         1 EO0       0.050033
     51 H301         2.2720    24.3800    16.9910 hc         1 EO0       0.050033
     52 H302         0.7930    24.4300    16.0010 hc         1 EO0       0.050033
     53 H181        -2.2020    27.8060    12.6410 hn         1 EO0       0.320500
     54 C14         -8.2020    28.1450    16.1400 c3         1 EO0       0.081600
@<TRIPOS>BOND
     1     1    14 ar  
     2     1    16 ar  
     3     1    30 1   
     4     2    15 ar  
     5     2    17 ar  
     6     2    31 1   
     7     3    32 1   
     8     3    33 1   
     9     3    34 1   
    10     3    54 1   
    11     4     5 ar  
    12     4    19 1   
    13     4    21 ar  
    14     5     6 ar  
    15     5    35 1   
    16     6    20 ar  
    17     6    36 1   
    18     7    20 ar  
    19     7    21 ar  
    20     7    37 1   
    21     8     9 ar  
    22     8    13 ar  
    23     8    38 1   
    24     9    10 ar  
    25     9    39 1   
    26    10    11 ar  
    27    10    40 1   
    28    11    12 ar  
    29    11    14 1   
    30    12    13 ar  
    31    12    24 1   
    32    13    41 1   
    33    14    15 ar  
    34    15    24 1   
    35    16    17 ar  
    36    16    18 1   
    37    17    42 1   
    38    18    25 1   
    39    18    26 2   
    40    19    25 1   
    41    19    45 1   
    42    19    46 1   
    43    20    29 1   
    44    21    47 1   
    45    22    23 1   
    46    22    29 1   
    47    22    48 1   
    48    22    49 1   
    49    23    50 1   
    50    23    51 1   
    51    23    52 1   
    52    24    54 1   
    53    25    53 1   
    54    27    29 2   
    55    28    29 2   
    56    43    54 1   
    57    44    54 1   
@<TRIPOS>SUBSTRUCTURE
     1 EO0         1 TEMP              0 ****  ****    0 ROOT
