@<TRIPOS>MOLECULE
EO0
   54    57     1     0     0
SMALL
abcg2


@<TRIPOS>ATOM
      1 C10         -5.6190    25.5610    13.0300 ca         1 EO0       0.010000
      2 C13         -5.5450    27.9940    14.4660 ca         1 EO0      -0.153000
      3 C15         -7.9200    28.2830    17.3060 c3         1 EO0      -0.118100
      4 C20         -0.1120    25.7900    12.0430 ca         1 EO0      -0.035300
      5 C21          0.0030    26.1010    13.3930 ca         1 EO0      -0.119500
      6 C22          1.0420    25.5870    14.1530 ca         1 EO0      -0.014000
      7 C24          1.8790    24.4300    12.2030 ca         1 EO0      -0.014000
      8 C01        -10.7160    25.0590    14.5850 ca         1 EO0      -0.081000
      9 C02        -10.0450    24.1320    13.7780 ca         1 EO0      -0.141000
     10 C03         -8.7250    24.3380    13.4180 ca         1 EO0      -0.051000
     11 C04         -8.0760    25.4850    13.8700 cp         1 EO0      -0.081000
     12 C05         -8.7670    26.4120    14.6740 ca         1 EO0      -0.003200
     13 C06        -10.0930    26.2070    15.0450 ca         1 EO0      -0.139000
     14 C07         -6.7460    26.0090    13.6990 cp         1 EO0      -0.099000
     15 C08         -6.7070    27.2280    14.4110 ca         1 EO0       0.021800
     16 C11         -4.4630    26.3330    13.0500 ca         1 EO0      -0.197600
     17 C12         -4.4390    27.5360    13.7770 ca         1 EO0      -0.060000
     18 C16         -3.2710    25.8260    12.3170 c          1 EO0       0.617700
     19 C19         -1.1950    26.3880    11.1780 c3         1 EO0       0.146300
     20 C23          1.9730    24.7520    13.5510 ca         1 EO0      -0.265500
     21 C25          0.8320    24.9470    11.4610 ca         1 EO0      -0.119500
     22 C27          2.7490    22.4650    15.0080 c3         1 EO0      -0.291400
     23 C30          1.5930    22.5090    15.9870 c3         1 EO0      -0.069100
     24 N09         -7.9300    27.4640    14.9750 na         1 EO0      -0.094600
     25 N18         -2.3890    26.7530    11.8930 ns         1 EO0      -0.511900
     26 O17         -3.1030    24.6330    12.1010 o          1 EO0      -0.598100
     27 O28          4.4590    23.9080    13.6140 o          1 EO0      -0.525500
     28 O29          3.4770    24.9160    15.7000 o          1 EO0      -0.525500
     29 S26          3.3120    24.0900    14.5040 sy         1 EO0       1.039500
     30 H101        -5.6380    24.6260    12.4840 ha         1 EO0       0.138000
     31 H131        -5.4900    28.9120    15.0360 ha         1 EO0       0.120000
     32 H152        -8.1710    29.1460    17.9230 hc         1 EO0       0.048033
     33 H151        -8.4850    27.4280    17.6770 hc         1 EO0       0.048033
     34 H153        -6.8580    28.0730    17.4350 hc         1 EO0       0.048033
     35 H211        -0.7200    26.7530    13.8670 ha         1 EO0       0.119500
     36 H221         1.1210    25.8440    15.2000 ha         1 EO0       0.135500
     37 H241         2.6060    23.7830    11.7300 ha         1 EO0       0.135500
     38 H011       -11.7470    24.8750    14.8590 ha         1 EO0       0.112000
     39 H021       -10.5650    23.2480    13.4360 ha         1 EO0       0.116000
     40 H031        -8.2050    23.6190    12.7970 ha         1 EO0       0.120000
     41 H061       -10.6280    26.9090    15.6710 ha         1 EO0       0.117000
     42 H121        -3.5280    28.1190    13.8360 ha         1 EO0       0.107000
     43 H141        -7.7100    29.4500    15.4990 h1         1 EO0       0.057200
     44 H142        -9.3100    28.8000    15.7340 h1         1 EO0       0.057200
     45 H192        -1.4310    25.6980    10.3660 h1         1 EO0       0.061700
     46 H191        -0.8080    27.2950    10.7120 h1         1 EO0       0.061700
     47 H251         0.7510    24.6930    10.4110 ha         1 EO0       0.119500
     48 H272         2.4990    21.9240    14.0940 h1         1 EO0       0.098700
     49 H271         3.6320    21.9940    15.4470 h1         1 EO0       0.098700
     50 H303         1.3110    21.4900    16.2460 hc         1 EO0       0.050033
     51 H301         1.8660    23.0240    16.9050 hc         1 EO0       0.050033
     52 H302         0.7140    22.9930    15.5620 hc         1 EO0       0.050033
     53 H181        -2.6120    27.7310    11.9670 hn         1 EO0       0.320500
     54 C14         -8.2510    28.5710    15.8510 c3         1 EO0       0.081600
@<TRIPOS>BOND
     1     1    14 ar  
     2     1    16 ar  
     3     1    30 1   
     4     2    15 ar  
     5     2    17 ar  
     6     2    31 1   
     7     3    32 1   
     8     3    33 1   
     9     3    34 1   
    10     3    54 1   
    11     4     5 ar  
    12     4    19 1   
    13     4    21 ar  
    14     5     6 ar  
    15     5    35 1   
    16     6    20 ar  
    17     6    36 1   
    18     7    20 ar  
    19     7    21 ar  
    20     7    37 1   
    21     8     9 ar  
    22     8    13 ar  
    23     8    38 1   
    24     9    10 ar  
    25     9    39 1   
    26    10    11 ar  
    27    10    40 1   
    28    11    12 ar  
    29    11    14 1   
    30    12    13 ar  
    31    12    24 1   
    32    13    41 1   
    33    14    15 ar  
    34    15    24 1   
    35    16    17 ar  
    36    16    18 1   
    37    17    42 1   
    38    18    25 1   
    39    18    26 2   
    40    19    25 1   
    41    19    45 1   
    42    19    46 1   
    43    20    29 1   
    44    21    47 1   
    45    22    23 1   
    46    22    29 1   
    47    22    48 1   
    48    22    49 1   
    49    23    50 1   
    50    23    51 1   
    51    23    52 1   
    52    24    54 1   
    53    25    53 1   
    54    27    29 2   
    55    28    29 2   
    56    43    54 1   
    57    44    54 1   
@<TRIPOS>SUBSTRUCTURE
     1 EO0         1 TEMP              0 ****  ****    0 ROOT
