@<TRIPOS>MOLECULE
EO1
   57    62     1     0     0
SMALL
No Charge or Current Charge


@<TRIPOS>ATOM
      1 C1           5.8760     0.2460    -0.7730 cc         1 EO1       0.198300
      2 C2           4.7820     0.6840    -0.0760 cd         1 EO1      -0.166000
      3 C3           3.4110     0.1200    -0.1270 ca         1 EO1      -0.016000
      4 C4           2.2520     0.9500    -0.0070 ca         1 EO1       0.138100
      5 C5           1.3310     3.2450     0.1740 c3         1 EO1       0.144900
      6 C6           0.9490     0.3830    -0.0370 ca         1 EO1      -0.173000
      7 C15         -3.8010     1.4910     0.1840 ca         1 EO1      -0.260900
      8 C17         -3.6100     3.8870     0.2780 ca         1 EO1      -0.152000
      9 C18         -5.0160     3.9780     0.4330 ca         1 EO1      -0.068000
     10 C22          3.2470    -1.2740    -0.3120 ca         1 EO1      -0.080000
     11 C23          5.3170     1.6060     0.8650 cd         1 EO1       0.305300
     12 C24          4.6190     2.2630     2.0280 c3         1 EO1      -0.132400
     13 N6           6.6130     1.8110     0.7110 nc         1 EO1      -0.371300
     14 O1           6.9850     0.9470    -0.3710 os         1 EO1      -0.076700
     15 C            6.0300    -0.7450    -1.8940 c3         1 EO1      -0.137400
     16 C8           1.9510    -1.7890    -0.3390 ca         1 EO1      -0.054200
     17 N            1.5040    -3.1080    -0.4800 na         1 EO1      -0.321300
     18 C9           0.1090    -3.2170    -0.4480 ca         1 EO1       0.209500
     19 N5          -0.7150    -4.2690    -0.5480 nb         1 EO1      -0.244000
     20 C20         -2.0330    -3.9770    -0.4720 ca         1 EO1       0.209300
     21 C21         -2.9930    -5.1480    -0.5860 c3         1 EO1      -0.134400
     22 N4          -2.5810    -2.7490    -0.3120 nb         1 EO1      -0.254000
     23 C11         -1.7380    -1.7000    -0.2110 ca         1 EO1       0.448900
     24 C10         -0.3450    -1.9050    -0.2770 cp         1 EO1      -0.269000
     25 C7           0.8140    -1.0090    -0.2030 cp         1 EO1      -0.003000
     26 O            2.4270     2.3200     0.0630 os         1 EO1      -0.333100
     27 N1          -2.2700    -0.4300    -0.0580 nu         1 EO1      -0.842100
     28 C12         -3.5270     0.0810     0.0860 cc         1 EO1       0.577800
     29 C16         -2.9800     2.6300     0.1500 ca         1 EO1      -0.037000
     30 C19         -5.8080     2.8100     0.4620 ca         1 EO1      -0.133000
     31 C14         -5.1500     1.5790     0.3320 ca         1 EO1      -0.014200
     32 N3          -5.6280     0.2840     0.3200 na         1 EO1       0.071600
     33 N2          -4.6260    -0.6710     0.1680 nd         1 EO1      -0.504100
     34 C13         -7.0500    -0.0660     0.4560 c3         1 EO1       0.086900
     35 H1           0.6670     3.1700    -0.6970 h1         1 EO1       0.040700
     36 H2           0.7480     3.0510     1.0830 h1         1 EO1       0.040700
     37 H3           1.7070     4.2740     0.2260 h1         1 EO1       0.040700
     38 H4           0.0690     1.0050     0.0530 ha         1 EO1       0.111000
     39 H5          -3.0110     4.7940     0.2560 ha         1 EO1       0.114000
     40 H6          -5.4880     4.9540     0.5310 ha         1 EO1       0.113000
     41 H7           4.0990    -1.9430    -0.3920 ha         1 EO1       0.125000
     42 H8           3.7540     1.6760     2.3560 hc         1 EO1       0.057367
     43 H9           5.2900     2.3610     2.8880 hc         1 EO1       0.057367
     44 H10          4.2720     3.2670     1.7600 hc         1 EO1       0.057367
     45 H11          6.8400    -0.4460    -2.5690 hc         1 EO1       0.062700
     46 H12          6.2670    -1.7410    -1.5030 hc         1 EO1       0.062700
     47 H13          5.1110    -0.8150    -2.4870 hc         1 EO1       0.062700
     48 H14          2.1160    -3.9080    -0.5950 hn         1 EO1       0.367000
     49 H15         -2.7180    -5.9500     0.1090 hc         1 EO1       0.060367
     50 H16         -4.0240    -4.8530    -0.3590 hc         1 EO1       0.060367
     51 H17         -2.9810    -5.5630    -1.6010 hc         1 EO1       0.060367
     52 H18         -1.5700     0.2950    -0.0540 hn         1 EO1       0.506000
     53 H19         -1.9030     2.5570     0.0280 ha         1 EO1       0.106000
     54 H20         -6.8880     2.8670     0.5800 ha         1 EO1       0.121000
     55 H21         -7.6190     0.3880    -0.3640 h1         1 EO1       0.053033
     56 H22         -7.1730    -1.1550     0.4210 h1         1 EO1       0.053033
     57 H23         -7.4290     0.3100     1.4140 h1         1 EO1       0.053033
@<TRIPOS>BOND
     1     1     2 2   
     2     1    14 1   
     3     1    15 1   
     4     2     3 1   
     5     2    11 1   
     6     3     4 ar  
     7     3    10 ar  
     8     4     6 ar  
     9     4    26 1   
    10     5    26 1   
    11     5    35 1   
    12     5    36 1   
    13     5    37 1   
    14     6    25 ar  
    15     6    38 1   
    16     7    28 1   
    17     7    29 ar  
    18     7    31 ar  
    19     8     9 ar  
    20     8    29 ar  
    21     8    39 1   
    22     9    30 ar  
    23     9    40 1   
    24    10    16 ar  
    25    10    41 1   
    26    11    12 1   
    27    11    13 2   
    28    12    42 1   
    29    12    43 1   
    30    12    44 1   
    31    13    14 1   
    32    15    45 1   
    33    15    46 1   
    34    15    47 1   
    35    16    17 1   
    36    16    25 ar  
    37    17    18 1   
    38    17    48 1   
    39    18    19 ar  
    40    18    24 ar  
    41    19    20 ar  
    42    20    21 1   
    43    20    22 ar  
    44    21    49 1   
    45    21    50 1   
    46    21    51 1   
    47    22    23 ar  
    48    23    24 ar  
    49    23    27 1   
    50    24    25 1   
    51    27    28 1   
    52    27    52 1   
    53    28    33 2   
    54    29    53 1   
    55    30    31 ar  
    56    30    54 1   
    57    31    32 1   
    58    32    33 1   
    59    32    34 1   
    60    34    55 1   
    61    34    56 1   
    62    34    57 1   
@<TRIPOS>SUBSTRUCTURE
     1 EO1         1 TEMP              0 ****  ****    0 ROOT
