@<TRIPOS>MOLECULE
EO1
   57    62     1     0     0
SMALL
abcg2


@<TRIPOS>ATOM
      1 C1           5.8360     0.3440    -0.9540 cc         1 EO1       0.198300
      2 C2           4.8800     0.4870    -0.0010 cd         1 EO1      -0.166000
      3 C3           3.4940     0.0130    -0.0360 ca         1 EO1      -0.016000
      4 C4           2.4240     0.9350     0.0360 ca         1 EO1       0.138100
      5 C5           1.7810     3.2190     0.1780 c3         1 EO1       0.144900
      6 C6           1.1080     0.5040     0.0150 ca         1 EO1      -0.173000
      7 C15         -3.9620     1.5530     0.0980 ca         1 EO1      -0.260900
      8 C17         -4.0510     3.9310     0.0020 ca         1 EO1      -0.152000
      9 C18         -5.4550     3.8760     0.1240 ca         1 EO1      -0.068000
     10 C22          3.2280    -1.3430    -0.1580 ca         1 EO1      -0.080000
     11 C23          5.5620     1.1550     1.0600 cd         1 EO1       0.305300
     12 C24          5.0210     1.5530     2.3860 c3         1 EO1      -0.132400
     13 N6           6.8030     1.3770     0.7460 nc         1 EO1      -0.371300
     14 O1           6.9790     0.8760    -0.5130 os         1 EO1      -0.076700
     15 C            5.8250    -0.2490    -2.3100 c3         1 EO1      -0.137400
     16 C8           1.9100    -1.7690    -0.1960 ca         1 EO1      -0.054200
     17 N            1.4090    -3.0480    -0.3120 na         1 EO1      -0.321300
     18 C9           0.0570    -2.9990    -0.2910 ca         1 EO1       0.209500
     19 N5          -0.7510    -4.0500    -0.3880 nb         1 EO1      -0.244000
     20 C20         -2.0380    -3.7440    -0.3390 ca         1 EO1       0.209300
     21 C21         -3.0190    -4.8700    -0.4200 c3         1 EO1      -0.134400
     22 N4          -2.5590    -2.5230    -0.1990 nb         1 EO1      -0.254000
     23 C11         -1.7450    -1.4810    -0.1030 ca         1 EO1       0.448900
     24 C10         -0.3530    -1.6640    -0.1550 cp         1 EO1      -0.269000
     25 C7           0.8390    -0.8630    -0.0990 cp         1 EO1      -0.003000
     26 O            2.7880     2.2310     0.1080 os         1 EO1      -0.333100
     27 N1          -2.2640    -0.2340     0.0420 nu         1 EO1      -0.842100
     28 C12         -3.5800     0.1790     0.1210 cc         1 EO1       0.577800
     29 C16         -3.2970     2.7800    -0.0130 ca         1 EO1      -0.037000
     30 C19         -6.1310     2.6820     0.2340 ca         1 EO1      -0.133000
     31 C14         -5.3600     1.5120     0.2240 ca         1 EO1      -0.014200
     32 N3          -5.6990     0.2080     0.3220 na         1 EO1       0.071600
     33 N2          -4.6230    -0.5980     0.2500 nd         1 EO1      -0.504100
     34 C13         -7.0180    -0.3650     0.3630 c3         1 EO1       0.086900
     35 H1           1.1490     3.2210    -0.7150 h1         1 EO1       0.040700
     36 H2           1.1490     3.1020     1.0630 h1         1 EO1       0.040700
     37 H3           2.2930     4.1760     0.2420 h1         1 EO1       0.040700
     38 H4           0.3040     1.2240     0.0690 ha         1 EO1       0.111000
     39 H5          -3.5660     4.8940    -0.0850 ha         1 EO1       0.114000
     40 H6          -6.0180     4.8000     0.1300 ha         1 EO1       0.113000
     41 H7           4.0450    -2.0520    -0.2080 ha         1 EO1       0.125000
     42 H8           4.5110     0.7130     2.8580 hc         1 EO1       0.057367
     43 H9           5.8160     1.8920     3.0460 hc         1 EO1       0.057367
     44 H10          4.2940     2.3570     2.2790 hc         1 EO1       0.057367
     45 H11          6.1830     0.4640    -3.0530 hc         1 EO1       0.062700
     46 H12          6.4640    -1.1320    -2.3620 hc         1 EO1       0.062700
     47 H13          4.8140    -0.5440    -2.5790 hc         1 EO1       0.062700
     48 H14          1.9550    -3.8890    -0.4110 hn         1 EO1       0.367000
     49 H15         -3.4200    -5.0890     0.5720 hc         1 EO1       0.060367
     50 H16         -3.8630    -4.6030    -1.0540 hc         1 EO1       0.060367
     51 H17         -2.5520    -5.7740    -0.8020 hc         1 EO1       0.060367
     52 H18         -1.5970     0.5170     0.0880 hn         1 EO1       0.506000
     53 H19         -2.2200     2.8360    -0.1110 ha         1 EO1       0.106000
     54 H20         -7.2090     2.6550     0.3220 ha         1 EO1       0.121000
     55 H21         -7.3570    -0.6660    -0.6280 h1         1 EO1       0.053033
     56 H22         -7.0150    -1.2340     1.0170 h1         1 EO1       0.053033
     57 H23         -7.7150     0.3660     0.7650 h1         1 EO1       0.053033
@<TRIPOS>BOND
     1     1     2 2   
     2     1    14 1   
     3     1    15 1   
     4     2     3 1   
     5     2    11 1   
     6     3     4 ar  
     7     3    10 ar  
     8     4     6 ar  
     9     4    26 1   
    10     5    26 1   
    11     5    35 1   
    12     5    36 1   
    13     5    37 1   
    14     6    25 ar  
    15     6    38 1   
    16     7    28 1   
    17     7    29 ar  
    18     7    31 ar  
    19     8     9 ar  
    20     8    29 ar  
    21     8    39 1   
    22     9    30 ar  
    23     9    40 1   
    24    10    16 ar  
    25    10    41 1   
    26    11    12 1   
    27    11    13 2   
    28    12    42 1   
    29    12    43 1   
    30    12    44 1   
    31    13    14 1   
    32    15    45 1   
    33    15    46 1   
    34    15    47 1   
    35    16    17 1   
    36    16    25 ar  
    37    17    18 1   
    38    17    48 1   
    39    18    19 ar  
    40    18    24 ar  
    41    19    20 ar  
    42    20    21 1   
    43    20    22 ar  
    44    21    49 1   
    45    21    50 1   
    46    21    51 1   
    47    22    23 ar  
    48    23    24 ar  
    49    23    27 1   
    50    24    25 1   
    51    27    28 1   
    52    27    52 1   
    53    28    33 2   
    54    29    53 1   
    55    30    31 ar  
    56    30    54 1   
    57    31    32 1   
    58    32    33 1   
    59    32    34 1   
    60    34    55 1   
    61    34    56 1   
    62    34    57 1   
@<TRIPOS>SUBSTRUCTURE
     1 EO1         1 TEMP              0 ****  ****    0 ROOT
