@<TRIPOS>MOLECULE
EO2
   19    18     1     0     0
SMALL
bcc


@<TRIPOS>ATOM
      1 O           -8.9470     6.3590    23.1250 o          1 EO2      -0.840300
      2 C           -9.9360     6.6210    22.4090 c          1 EO2       0.904600
      3 N          -11.6120     5.7530    20.6950 n8         1 EO2      -0.886800
      4 CA         -10.4740     5.4440    21.5480 c3         1 EO2       0.014500
      5 CB          -9.3420     4.8520    20.7020 c3         1 EO2      -0.032200
      6 CG          -9.7610     3.7060    19.8250 c2         1 EO2      -0.058400
      7 CD         -10.3810     2.5280    20.5140 c3         1 EO2      -0.053900
      8 CE          -9.5660     3.7240    18.5060 c2         1 EO2      -0.282000
      9 H5         -10.8000     4.6720    22.2580 h1         1 EO2       0.038700
     10 H6          -8.5540     4.5120    21.3780 hc         1 EO2       0.048700
     11 H7          -8.9030     5.6410    20.0810 hc         1 EO2       0.048700
     12 H8         -11.3470     2.7950    20.9470 hc         1 EO2       0.032700
     13 H9         -10.5390     1.6950    19.8300 hc         1 EO2       0.032700
     14 H10         -9.7530     2.1800    21.3380 hc         1 EO2       0.032700
     15 H11         -9.1210     4.5800    18.0120 ha         1 EO2       0.094500
     16 H12         -9.8420     2.8870    17.8760 ha         1 EO2       0.094500
     17 O1         -10.5330     7.7120    22.3280 o          1 EO2      -0.840300
     18 H2         -12.2580     6.3240    21.2270 hn         1 EO2       0.325300
     19 H3         -11.2980     6.3620    19.9470 hn         1 EO2       0.325300
@<TRIPOS>BOND
     1     1     2 1   
     2     2     4 1   
     3     2    17 1   
     4     3     4 1   
     5     3    18 1   
     6     3    19 1   
     7     4     5 1   
     8     4     9 1   
     9     5     6 1   
    10     5    10 1   
    11     5    11 1   
    12     6     7 1   
    13     6     8 2   
    14     7    12 1   
    15     7    13 1   
    16     7    14 1   
    17     8    15 1   
    18     8    16 1   
@<TRIPOS>SUBSTRUCTURE
     1 EO2         1 TEMP              0 ****  ****    0 ROOT
