@<TRIPOS>MOLECULE
EO2
   19    18     1     0     0
SMALL
No Charge or Current Charge


@<TRIPOS>ATOM
      1 O           -9.8870     6.2920    23.6930 o          1 EO2      -0.840300
      2 C           -9.9090     6.5620    22.4960 c          1 EO2       0.904600
      3 N          -11.6450     5.9580    20.5960 n8         1 EO2      -0.886800
      4 CA         -10.5100     5.4920    21.4850 c3         1 EO2       0.014500
      5 CB          -9.3660     4.8650    20.6390 c3         1 EO2      -0.032200
      6 CG          -9.7730     3.6690    19.7820 c2         1 EO2      -0.058400
      7 CD         -10.1360     2.4260    20.5760 c3         1 EO2      -0.053900
      8 CE          -9.7700     3.6970    18.4400 c2         1 EO2      -0.282000
      9 H5         -10.9250     4.6950    22.1150 h1         1 EO2       0.038700
     10 H6          -8.5570     4.5610    21.3170 hc         1 EO2       0.048700
     11 H7          -8.9360     5.6500    20.0050 hc         1 EO2       0.048700
     12 H8         -11.0310     2.5870    21.1880 hc         1 EO2       0.032700
     13 H9         -10.3430     1.5740    19.9180 hc         1 EO2       0.032700
     14 H10         -9.3190     2.1310    21.2460 hc         1 EO2       0.032700
     15 H11         -9.4920     4.5940    17.8890 ha         1 EO2       0.094500
     16 H12        -10.0500     2.8240    17.8510 ha         1 EO2       0.094500
     17 O1          -9.5940     7.6690    22.0700 o          1 EO2      -0.840300
     18 H2         -12.4010     6.3270    21.1810 hn         1 EO2       0.325300
     19 H3         -11.3260     6.7720    20.0590 hn         1 EO2       0.325300
@<TRIPOS>BOND
     1     1     2 1   
     2     2     4 1   
     3     2    17 1   
     4     3     4 1   
     5     3    18 1   
     6     3    19 1   
     7     4     5 1   
     8     4     9 1   
     9     5     6 1   
    10     5    10 1   
    11     5    11 1   
    12     6     7 1   
    13     6     8 2   
    14     7    12 1   
    15     7    13 1   
    16     7    14 1   
    17     8    15 1   
    18     8    16 1   
@<TRIPOS>SUBSTRUCTURE
     1 EO2         1 TEMP              0 ****  ****    0 ROOT
