@<TRIPOS>MOLECULE
EO3
   67    66     1     0     0
SMALL
No Charge or Current Charge


@<TRIPOS>ATOM
      1 C10        -64.3490    31.8760   -10.6750 c3         1 EO3      -0.076400
      2 C13        -62.8540    28.7030   -12.5460 c3         1 EO3      -0.075400
      3 C15        -61.8080    26.4160   -11.8090 c3         1 EO3      -0.071400
      4 C17        -61.1660    26.2090   -14.3290 c3         1 EO3      -0.077400
      5 C20        -60.6930    25.1710   -18.1370 c3         1 EO3      -0.054400
      6 C21        -62.1090    25.1810   -18.7680 c3         1 EO3      -0.206400
      7 C22        -62.0860    24.4690   -20.1330 c          1 EO3       0.717000
      8 C01        -65.2580    33.3890    -4.0470 c3         1 EO3      -0.090100
      9 C02        -65.5210    34.8940    -4.2680 c3         1 EO3      -0.074400
     10 C03        -66.9310    35.2240    -4.8210 c3         1 EO3      -0.069400
     11 C04        -67.2530    34.7320    -6.2600 c3         1 EO3      -0.072400
     12 C05        -66.8670    35.6950    -7.4150 c3         1 EO3      -0.071400
     13 C06        -65.3570    35.9550    -7.6470 c3         1 EO3      -0.068400
     14 C07        -64.4840    34.7010    -7.9070 c3         1 EO3      -0.075400
     15 C08        -64.8840    33.8910    -9.1620 c3         1 EO3      -0.075400
     16 C09        -63.9480    32.6920    -9.4260 c3         1 EO3      -0.075400
     17 C11        -63.4130    30.6760   -10.9390 c3         1 EO3      -0.075400
     18 C12        -63.8200    29.8590   -12.1880 c3         1 EO3      -0.073400
     19 C14        -62.8420    27.5370   -11.5270 c3         1 EO3      -0.071400
     20 C16        -61.9880    25.6460   -13.1430 c3         1 EO3      -0.075400
     21 C18        -61.3880    25.4230   -15.6400 c3         1 EO3      -0.076400
     22 C19        -60.5640    25.9820   -16.8240 c3         1 EO3      -0.073400
     23 O23        -62.2750    23.2620   -20.1580 o          1 EO3      -0.743500
     24 O1         -61.8310    25.1330   -21.1270 o          1 EO3      -0.743500
     25 H101       -64.3450    32.5360   -11.5520 hc         1 EO3       0.036700
     26 H102       -65.3760    31.5110   -10.5520 hc         1 EO3       0.036700
     27 H132       -63.1600    28.3120   -13.5230 hc         1 EO3       0.046200
     28 H131       -61.8390    29.1010   -12.6630 hc         1 EO3       0.046200
     29 H152       -61.8830    25.6910   -10.9890 hc         1 EO3       0.030200
     30 H151       -60.7930    26.8290   -11.7520 hc         1 EO3       0.030200
     31 H172       -60.1000    26.1780   -14.0690 hc         1 EO3       0.029200
     32 H171       -61.4160    27.2610   -14.5000 hc         1 EO3       0.029200
     33 H201       -60.3820    24.1340   -17.9530 hc         1 EO3       0.038700
     34 H202       -59.9810    25.5830   -18.8630 hc         1 EO3       0.038700
     35 H212       -62.3760    26.2380   -18.8930 hc         1 EO3       0.014200
     36 H211       -62.7600    24.6400   -18.0710 hc         1 EO3       0.014200
     37 H012       -64.2770    33.2410    -3.5800 hc         1 EO3       0.031033
     38 H013       -66.0190    32.9560    -3.3870 hc         1 EO3       0.031033
     39 H011       -65.2650    32.8380    -4.9940 hc         1 EO3       0.031033
     40 H022       -64.7430    35.3040    -4.9200 hc         1 EO3       0.036200
     41 H021       -65.4050    35.4040    -3.3040 hc         1 EO3       0.036200
     42 H032       -67.0880    36.3090    -4.7730 hc         1 EO3       0.032700
     43 H031       -67.6690    34.7860    -4.1370 hc         1 EO3       0.032700
     44 H041       -68.3390    34.5890    -6.3170 hc         1 EO3       0.038700
     45 H042       -66.8230    33.7400    -6.4360 hc         1 EO3       0.038700
     46 H051       -67.3590    36.6600    -7.2420 hc         1 EO3       0.033700
     47 H052       -67.3020    35.3070    -8.3440 hc         1 EO3       0.033700
     48 H062       -64.9500    36.5080    -6.7940 hc         1 EO3       0.034700
     49 H061       -65.2550    36.6290    -8.5070 hc         1 EO3       0.034700
     50 H071       -64.5090    34.0440    -7.0300 hc         1 EO3       0.036700
     51 H072       -63.4420    35.0260    -8.0160 hc         1 EO3       0.036700
     52 H082       -64.8790    34.5540   -10.0360 hc         1 EO3       0.037200
     53 H081       -65.9090    33.5180    -9.0460 hc         1 EO3       0.037200
     54 H092       -63.9520    32.0320    -8.5490 hc         1 EO3       0.035200
     55 H091       -62.9200    33.0560    -9.5490 hc         1 EO3       0.035200
     56 H112       -63.4180    30.0270   -10.0550 hc         1 EO3       0.035700
     57 H111       -62.3860    31.0410   -11.0650 hc         1 EO3       0.035700
     58 H121       -63.8720    30.5390   -13.0480 hc         1 EO3       0.037200
     59 H122       -64.8300    29.4560   -12.0480 hc         1 EO3       0.037200
     60 H142       -62.6300    27.9330   -10.5270 hc         1 EO3       0.030200
     61 H141       -63.8440    27.0950   -11.4790 hc         1 EO3       0.030200
     62 H161       -63.0520    25.6130   -13.4080 hc         1 EO3       0.037200
     63 H162       -61.6780    24.6060   -12.9820 hc         1 EO3       0.037200
     64 H181       -62.4550    25.4510   -15.8900 hc         1 EO3       0.040700
     65 H182       -61.1210    24.3710   -15.4800 hc         1 EO3       0.040700
     66 H191       -59.5060    26.0040   -16.5370 hc         1 EO3       0.016200
     67 H192       -60.8590    27.0220   -17.0130 hc         1 EO3       0.016200
@<TRIPOS>BOND
     1     1    16 1   
     2     1    17 1   
     3     1    25 1   
     4     1    26 1   
     5     2    18 1   
     6     2    19 1   
     7     2    27 1   
     8     2    28 1   
     9     3    19 1   
    10     3    20 1   
    11     3    29 1   
    12     3    30 1   
    13     4    20 1   
    14     4    21 1   
    15     4    31 1   
    16     4    32 1   
    17     5     6 1   
    18     5    22 1   
    19     5    33 1   
    20     5    34 1   
    21     6     7 1   
    22     6    35 1   
    23     6    36 1   
    24     7    23 1   
    25     7    24 1   
    26     8     9 1   
    27     8    37 1   
    28     8    38 1   
    29     8    39 1   
    30     9    10 1   
    31     9    40 1   
    32     9    41 1   
    33    10    11 1   
    34    10    42 1   
    35    10    43 1   
    36    11    12 1   
    37    11    44 1   
    38    11    45 1   
    39    12    13 1   
    40    12    46 1   
    41    12    47 1   
    42    13    14 1   
    43    13    48 1   
    44    13    49 1   
    45    14    15 1   
    46    14    50 1   
    47    14    51 1   
    48    15    16 1   
    49    15    52 1   
    50    15    53 1   
    51    16    54 1   
    52    16    55 1   
    53    17    18 1   
    54    17    56 1   
    55    17    57 1   
    56    18    58 1   
    57    18    59 1   
    58    19    60 1   
    59    19    61 1   
    60    20    62 1   
    61    20    63 1   
    62    21    22 1   
    63    21    64 1   
    64    21    65 1   
    65    22    66 1   
    66    22    67 1   
@<TRIPOS>SUBSTRUCTURE
     1 EO3         1 TEMP              0 ****  ****    0 ROOT
