@<TRIPOS>MOLECULE
EO3
   67    66     1     0     0
SMALL
abcg2


@<TRIPOS>ATOM
      1 C10        -64.1600    31.9030   -10.6780 c3         1 EO3      -0.076400
      2 C13        -62.6680    28.7610   -12.4820 c3         1 EO3      -0.075400
      3 C15        -61.6300    26.5250   -11.7240 c3         1 EO3      -0.071400
      4 C17        -61.1040    26.2650   -14.2330 c3         1 EO3      -0.077400
      5 C20        -60.9110    25.2240   -18.0080 c3         1 EO3      -0.054400
      6 C21        -62.3280    25.3750   -18.5420 c3         1 EO3      -0.206400
      7 C22        -62.6440    24.6530   -19.8680 c          1 EO3       0.717000
      8 C01        -65.5430    33.1210    -4.3560 c3         1 EO3      -0.090100
      9 C02        -65.7230    34.6290    -4.4680 c3         1 EO3      -0.074400
     10 C03        -67.0480    35.0450    -5.1090 c3         1 EO3      -0.069400
     11 C04        -67.2540    34.6600    -6.5790 c3         1 EO3      -0.072400
     12 C05        -66.7350    35.6670    -7.6050 c3         1 EO3      -0.071400
     13 C06        -65.2230    35.8850    -7.6550 c3         1 EO3      -0.068400
     14 C07        -64.3920    34.6260    -7.8900 c3         1 EO3      -0.075400
     15 C08        -64.7100    33.8940    -9.1880 c3         1 EO3      -0.075400
     16 C09        -63.8270    32.6720    -9.4060 c3         1 EO3      -0.075400
     17 C11        -63.2640    30.6900   -10.8970 c3         1 EO3      -0.075400
     18 C12        -63.6310    29.8960   -12.1460 c3         1 EO3      -0.073400
     19 C14        -62.6250    27.6510   -11.4390 c3         1 EO3      -0.071400
     20 C16        -61.8750    25.7480   -13.0230 c3         1 EO3      -0.075400
     21 C18        -61.4190    25.4960   -15.5100 c3         1 EO3      -0.076400
     22 C19        -60.6490    26.0060   -16.7230 c3         1 EO3      -0.073400
     23 O23        -61.8030    23.8430   -20.3080 o          1 EO3      -0.743500
     24 O1         -63.7450    24.9350   -20.3890 o          1 EO3      -0.743500
     25 H101       -64.0810    32.5710   -11.5420 hc         1 EO3       0.036700
     26 H102       -65.2060    31.5790   -10.6400 hc         1 EO3       0.036700
     27 H132       -62.9590    28.3390   -13.4480 hc         1 EO3       0.046200
     28 H131       -61.6610    29.1710   -12.6210 hc         1 EO3       0.046200
     29 H152       -61.6690    25.8320   -10.8790 hc         1 EO3       0.030200
     30 H151       -60.6120    26.9300   -11.7270 hc         1 EO3       0.030200
     31 H172       -60.0300    26.2030   -14.0250 hc         1 EO3       0.029200
     32 H171       -61.3160    27.3260   -14.3920 hc         1 EO3       0.029200
     33 H201       -60.6890    24.1670   -17.8340 hc         1 EO3       0.038700
     34 H202       -60.2030    25.5550   -18.7730 hc         1 EO3       0.038700
     35 H212       -62.5580    26.4390   -18.6650 hc         1 EO3       0.014200
     36 H211       -63.0490    25.0190   -17.7970 hc         1 EO3       0.014200
     37 H012       -64.6180    32.8720    -3.8350 hc         1 EO3       0.031033
     38 H013       -66.3680    32.6670    -3.8020 hc         1 EO3       0.031033
     39 H011       -65.5020    32.6390    -5.3340 hc         1 EO3       0.031033
     40 H022       -64.8800    35.0590    -5.0110 hc         1 EO3       0.036200
     41 H021       -65.6800    35.0620    -3.4640 hc         1 EO3       0.036200
     42 H032       -67.1730    36.1280    -5.0080 hc         1 EO3       0.032700
     43 H031       -67.8530    34.6000    -4.5140 hc         1 EO3       0.032700
     44 H041       -68.3280    34.5520    -6.7540 hc         1 EO3       0.038700
     45 H042       -66.8340    33.6680    -6.7770 hc         1 EO3       0.038700
     46 H051       -67.2150    36.6330    -7.4150 hc         1 EO3       0.033700
     47 H052       -67.0850    35.3580    -8.5950 hc         1 EO3       0.033700
     48 H062       -64.8900    36.3640    -6.7300 hc         1 EO3       0.034700
     49 H061       -65.0080    36.6040    -8.4520 hc         1 EO3       0.034700
     50 H071       -64.5200    33.9340    -7.0520 hc         1 EO3       0.036700
     51 H072       -63.3330    34.9010    -7.8870 hc         1 EO3       0.036700
     52 H082       -64.6000    34.5810   -10.0340 hc         1 EO3       0.037200
     53 H081       -65.7580    33.5770    -9.1890 hc         1 EO3       0.037200
     54 H092       -63.9220    32.0030    -8.5440 hc         1 EO3       0.035200
     55 H091       -62.7760    32.9830    -9.4330 hc         1 EO3       0.035200
     56 H112       -63.3160    30.0470   -10.0120 hc         1 EO3       0.035700
     57 H111       -62.2220    31.0200   -10.9710 hc         1 EO3       0.035700
     58 H121       -63.6740    30.5820   -12.9980 hc         1 EO3       0.037200
     59 H122       -64.6440    29.4930   -12.0340 hc         1 EO3       0.037200
     60 H142       -62.3820    28.0760   -10.4600 hc         1 EO3       0.030200
     61 H141       -63.6280    27.2210   -11.3390 hc         1 EO3       0.030200
     62 H161       -62.9480    25.7440   -13.2480 hc         1 EO3       0.037200
     63 H162       -61.6040    24.6980   -12.8740 hc         1 EO3       0.037200
     64 H181       -62.4960    25.5500   -15.6970 hc         1 EO3       0.040700
     65 H182       -61.1920    24.4340   -15.3610 hc         1 EO3       0.040700
     66 H191       -59.5780    25.9730   -16.4960 hc         1 EO3       0.016200
     67 H192       -60.8880    27.0640   -16.8830 hc         1 EO3       0.016200
@<TRIPOS>BOND
     1     1    16 1   
     2     1    17 1   
     3     1    25 1   
     4     1    26 1   
     5     2    18 1   
     6     2    19 1   
     7     2    27 1   
     8     2    28 1   
     9     3    19 1   
    10     3    20 1   
    11     3    29 1   
    12     3    30 1   
    13     4    20 1   
    14     4    21 1   
    15     4    31 1   
    16     4    32 1   
    17     5     6 1   
    18     5    22 1   
    19     5    33 1   
    20     5    34 1   
    21     6     7 1   
    22     6    35 1   
    23     6    36 1   
    24     7    23 1   
    25     7    24 1   
    26     8     9 1   
    27     8    37 1   
    28     8    38 1   
    29     8    39 1   
    30     9    10 1   
    31     9    40 1   
    32     9    41 1   
    33    10    11 1   
    34    10    42 1   
    35    10    43 1   
    36    11    12 1   
    37    11    44 1   
    38    11    45 1   
    39    12    13 1   
    40    12    46 1   
    41    12    47 1   
    42    13    14 1   
    43    13    48 1   
    44    13    49 1   
    45    14    15 1   
    46    14    50 1   
    47    14    51 1   
    48    15    16 1   
    49    15    52 1   
    50    15    53 1   
    51    16    54 1   
    52    16    55 1   
    53    17    18 1   
    54    17    56 1   
    55    17    57 1   
    56    18    58 1   
    57    18    59 1   
    58    19    60 1   
    59    19    61 1   
    60    20    62 1   
    61    20    63 1   
    62    21    22 1   
    63    21    64 1   
    64    21    65 1   
    65    22    66 1   
    66    22    67 1   
@<TRIPOS>SUBSTRUCTURE
     1 EO3         1 TEMP              0 ****  ****    0 ROOT
