@<TRIPOS>MOLECULE
EO4
   58    63     1     0     0
SMALL
abcg2


@<TRIPOS>ATOM
      1 C2          -4.9840     0.1790     0.0130 cc         1 EO4      -0.169000
      2 C3          -3.5480    -0.1080    -0.0330 ca         1 EO4      -0.013000
      3 C4          -2.6070     0.9400     0.0900 ca         1 EO4       0.140100
      4 C5          -2.2630     3.2680     0.4080 c3         1 EO4       0.144900
      5 C1          -5.9170    -0.1030    -0.9340 cd         1 EO4       0.199300
      6 C6          -1.2450     0.6810     0.0520 ca         1 EO4      -0.174000
      7 C7          -0.8060    -0.6330    -0.1260 cp         1 EO4      -0.005000
      8 C8          -1.7510    -1.6650    -0.2620 ca         1 EO4      -0.053200
      9 O1          -7.1210     0.2590    -0.4860 os         1 EO4      -0.074700
     10 N2           4.9500     2.5680     0.2220 nc         1 EO4      -0.520800
     11 C9           0.2460    -2.6420    -0.3950 ca         1 EO4       0.211500
     12 N3           3.6500     2.2340     0.1740 na         1 EO4       0.086800
     13 C22         -5.7480     0.7410     1.0790 cc         1 EO4       0.306300
     14 N6          -7.0120     0.7800     0.7730 nd         1 EO4      -0.370300
     15 C           -5.8290    -0.7050    -2.2830 c3         1 EO4      -0.138400
     16 C21         -3.1120    -1.4120    -0.2130 ca         1 EO4      -0.080000
     17 N           -1.0880    -2.8640    -0.4220 na         1 EO4      -0.319300
     18 N5           1.1830    -3.5760    -0.5170 nb         1 EO4      -0.240000
     19 C19          2.4210    -3.1090    -0.4550 ca         1 EO4       0.212300
     20 C20          3.5390    -4.0900    -0.6130 c3         1 EO4      -0.136400
     21 N4           2.7760    -1.8320    -0.2900 nb         1 EO4      -0.278000
     22 C11          1.8330    -0.9080    -0.1730 ca         1 EO4       0.451900
     23 C10          0.4790    -1.2690    -0.2140 cp         1 EO4      -0.267000
     24 O           -3.1340     2.1720     0.2240 os         1 EO4      -0.330100
     25 C12          3.4790     0.9010     0.0530 cc         1 EO4       0.241000
     26 C14          5.6110     1.4310     0.1320 cd         1 EO4       0.303300
     27 C13          4.7360     0.3310     0.0220 cd         1 EO4      -0.225000
     28 C15          7.0830     1.4240     0.1500 cx         1 EO4      -0.159000
     29 C17          7.8500     0.4190    -0.6650 cx         1 EO4      -0.122400
     30 C16          7.8320     0.3070     0.8230 cx         1 EO4      -0.122400
     31 H1          -1.6530     3.1600     1.3090 h1         1 EO4       0.040367
     32 H2          -1.6050     3.4170    -0.4530 h1         1 EO4       0.040367
     33 H3          -2.8930     4.1470     0.5180 h1         1 EO4       0.040367
     34 H4           1.4480     1.0560     0.0590 hn         1 EO4       0.503000
     35 H5          -0.5380     1.4940     0.1470 ha         1 EO4       0.108000
     36 H6          -4.8070     2.2040     2.3120 hc         1 EO4       0.056367
     37 H7          -6.0790     1.2810     3.1170 hc         1 EO4       0.056367
     38 H8          -4.5050     0.5430     2.7960 hc         1 EO4       0.056367
     39 H9          -6.2350    -1.7180    -2.2920 hc         1 EO4       0.063033
     40 H10         -6.3820    -0.1180    -3.0160 hc         1 EO4       0.063033
     41 H11         -4.7890    -0.7580    -2.5980 hc         1 EO4       0.063033
     42 H12         -3.8330    -2.2160    -0.2950 ha         1 EO4       0.126000
     43 H13         -1.5190    -3.7670    -0.5420 hn         1 EO4       0.369000
     44 H14          3.9170    -4.0630    -1.6370 hc         1 EO4       0.061700
     45 H15          4.3700    -3.8380     0.0440 hc         1 EO4       0.061700
     46 H16          3.2050    -5.1030    -0.4060 hc         1 EO4       0.061700
     47 H17          2.0390     3.2720    -0.6880 h1         1 EO4       0.053367
     48 H18          1.9640     3.0980     1.0840 h1         1 EO4       0.053367
     49 H19          3.1140     4.2110     0.3480 h1         1 EO4       0.053367
     50 H20          4.9760    -0.7120    -0.0690 ha         1 EO4       0.169000
     51 H21          7.5220     2.4120     0.2310 hc         1 EO4       0.091700
     52 H22          7.2800    -0.3030    -1.2380 hc         1 EO4       0.073200
     53 H23          8.7590     0.7530    -1.1470 hc         1 EO4       0.073200
     54 H24          8.7300     0.5630     1.3700 hc         1 EO4       0.073200
     55 H25          7.2500    -0.4910     1.2670 hc         1 EO4       0.073200
     56 N1           2.1990     0.3910    -0.0090 nu         1 EO4      -0.922900
     57 C23         -5.2630     1.2180     2.4000 c3         1 EO4      -0.131400
     58 C18          2.6270     3.2480     0.2310 c3         1 EO4       0.065900
@<TRIPOS>BOND
     1     1     2 1   
     2     1     5 2   
     3     1    13 1   
     4     2     3 ar  
     5     2    16 ar  
     6     3     6 ar  
     7     3    24 1   
     8     4    24 1   
     9     4    31 1   
    10     4    32 1   
    11     4    33 1   
    12     5     9 1   
    13     5    15 1   
    14     6     7 ar  
    15     6    35 1   
    16     7     8 ar  
    17     7    23 1   
    18     8    16 ar  
    19     8    17 1   
    20     9    14 1   
    21    10    12 1   
    22    10    26 2   
    23    11    17 1   
    24    11    18 ar  
    25    11    23 ar  
    26    12    25 1   
    27    12    58 1   
    28    13    14 2   
    29    13    57 1   
    30    15    39 1   
    31    15    40 1   
    32    15    41 1   
    33    16    42 1   
    34    17    43 1   
    35    18    19 ar  
    36    19    20 1   
    37    19    21 ar  
    38    20    44 1   
    39    20    45 1   
    40    20    46 1   
    41    21    22 ar  
    42    22    23 ar  
    43    22    56 1   
    44    25    27 2   
    45    25    56 1   
    46    26    27 1   
    47    26    28 1   
    48    27    50 1   
    49    28    29 1   
    50    28    30 1   
    51    28    51 1   
    52    29    30 1   
    53    29    52 1   
    54    29    53 1   
    55    30    54 1   
    56    30    55 1   
    57    34    56 1   
    58    36    57 1   
    59    37    57 1   
    60    38    57 1   
    61    47    58 1   
    62    48    58 1   
    63    49    58 1   
@<TRIPOS>SUBSTRUCTURE
     1 EO4         1 TEMP              0 ****  ****    0 ROOT
