@<TRIPOS>MOLECULE
EO4
   58    63     1     0     0
SMALL
No Charge or Current Charge


@<TRIPOS>ATOM
      1 C2          -5.0000     0.2240     0.1890 cc         1 EO4      -0.169000
      2 C3          -3.5680    -0.1150     0.0840 ca         1 EO4      -0.013000
      3 C4          -2.5360     0.8570     0.2780 ca         1 EO4       0.140100
      4 C5          -1.9400     3.2330     0.6570 c3         1 EO4       0.144900
      5 C1          -5.9010    -0.1330    -0.7710 cd         1 EO4       0.199300
      6 C6          -1.1660     0.4850     0.1970 ca         1 EO4      -0.174000
      7 C7          -0.8400    -0.8540    -0.0920 cp         1 EO4      -0.005000
      8 C8          -1.8560    -1.7740    -0.2910 ca         1 EO4      -0.053200
      9 O1          -7.1150     0.4440    -0.5050 os         1 EO4      -0.074700
     10 N2           4.8680     2.5770     0.1150 nc         1 EO4      -0.520800
     11 C9           0.1700    -2.9080    -0.5260 ca         1 EO4       0.211500
     12 N3           3.5540     2.1770    -0.0690 na         1 EO4       0.086800
     13 C22         -5.7220     1.1120     1.0240 cc         1 EO4       0.306300
     14 N6          -6.9890     1.2570     0.6720 nd         1 EO4      -0.370300
     15 C           -5.7570    -0.9220    -2.0470 c3         1 EO4      -0.138400
     16 C21         -3.2110    -1.4520    -0.2170 ca         1 EO4      -0.080000
     17 N           -1.2260    -3.0000    -0.5450 na         1 EO4      -0.319300
     18 N5           1.1390    -3.8150    -0.7190 nb         1 EO4      -0.240000
     19 C19          2.4020    -3.3390    -0.6250 ca         1 EO4       0.212300
     20 C20          3.5250    -4.3370    -0.8470 c3         1 EO4      -0.136400
     21 N4           2.7670    -2.0610    -0.3670 nb         1 EO4      -0.278000
     22 C11          1.7790    -1.1660    -0.1730 ca         1 EO4       0.451900
     23 C10          0.4320    -1.5640    -0.2460 cp         1 EO4      -0.267000
     24 O           -2.8990     2.1780     0.4690 os         1 EO4      -0.330100
     25 C12          3.3540     0.8040     0.1320 cc         1 EO4       0.241000
     26 C14          5.4570     1.4450     0.4460 cd         1 EO4       0.303300
     27 C13          4.5820     0.3440     0.4860 cd         1 EO4      -0.225000
     28 C15          6.9070     1.3750     0.7590 cx         1 EO4      -0.159000
     29 C17          7.9380     1.4850    -0.3430 cx         1 EO4      -0.122400
     30 C16          7.7410     0.1720     0.3750 cx         1 EO4      -0.122400
     31 H1          -1.3230     3.0450     1.5460 h1         1 EO4       0.040367
     32 H2          -1.2840     3.3270    -0.2170 h1         1 EO4       0.040367
     33 H3          -2.4550     4.1920     0.7990 h1         1 EO4       0.040367
     34 H4           1.3360     0.7720     0.0480 hn         1 EO4       0.503000
     35 H5          -0.3790     1.2130     0.3440 ha         1 EO4       0.108000
     36 H6          -4.9230     2.8070     2.0870 hc         1 EO4       0.056367
     37 H7          -5.9070     1.7200     3.0800 hc         1 EO4       0.056367
     38 H8          -4.2710     1.2390     2.6190 hc         1 EO4       0.056367
     39 H9          -5.8620    -1.9970    -1.8580 hc         1 EO4       0.063033
     40 H10         -6.5240    -0.6350    -2.7750 hc         1 EO4       0.063033
     41 H11         -4.7800    -0.7490    -2.5130 hc         1 EO4       0.063033
     42 H12         -3.9640    -2.2240    -0.3510 ha         1 EO4       0.126000
     43 H13         -1.7190    -3.8670    -0.7240 hn         1 EO4       0.369000
     44 H14          3.7500    -4.4360    -1.9150 hc         1 EO4       0.061700
     45 H15          4.4450    -4.0270    -0.3370 hc         1 EO4       0.061700
     46 H16          3.2570    -5.3300    -0.4670 hc         1 EO4       0.061700
     47 H17          1.9930     2.8130    -1.3360 h1         1 EO4       0.053367
     48 H18          1.8250     3.2950     0.3810 h1         1 EO4       0.053367
     49 H19          3.0040     4.1290    -0.6730 h1         1 EO4       0.053367
     50 H20          4.8390    -0.6700     0.7570 ha         1 EO4       0.169000
     51 H21          7.1520     1.8610     1.7010 hc         1 EO4       0.091700
     52 H22          7.5820     1.5600    -1.3680 hc         1 EO4       0.073200
     53 H23          8.8450     2.0470    -0.1340 hc         1 EO4       0.073200
     54 H24          8.5160    -0.1490     1.0670 hc         1 EO4       0.073200
     55 H25          7.2640    -0.6350    -0.1770 hc         1 EO4       0.073200
     56 N1           2.1370     0.1510     0.0730 nu         1 EO4      -0.922900
     57 C23         -5.1710     1.7550     2.2680 c3         1 EO4      -0.131400
     58 C18          2.5310     3.1650    -0.4470 c3         1 EO4       0.065900
@<TRIPOS>BOND
     1     1     2 1   
     2     1     5 2   
     3     1    13 1   
     4     2     3 ar  
     5     2    16 ar  
     6     3     6 ar  
     7     3    24 1   
     8     4    24 1   
     9     4    31 1   
    10     4    32 1   
    11     4    33 1   
    12     5     9 1   
    13     5    15 1   
    14     6     7 ar  
    15     6    35 1   
    16     7     8 ar  
    17     7    23 1   
    18     8    16 ar  
    19     8    17 1   
    20     9    14 1   
    21    10    12 1   
    22    10    26 2   
    23    11    17 1   
    24    11    18 ar  
    25    11    23 ar  
    26    12    25 1   
    27    12    58 1   
    28    13    14 2   
    29    13    57 1   
    30    15    39 1   
    31    15    40 1   
    32    15    41 1   
    33    16    42 1   
    34    17    43 1   
    35    18    19 ar  
    36    19    20 1   
    37    19    21 ar  
    38    20    44 1   
    39    20    45 1   
    40    20    46 1   
    41    21    22 ar  
    42    22    23 ar  
    43    22    56 1   
    44    25    27 2   
    45    25    56 1   
    46    26    27 1   
    47    26    28 1   
    48    27    50 1   
    49    28    29 1   
    50    28    30 1   
    51    28    51 1   
    52    29    30 1   
    53    29    52 1   
    54    29    53 1   
    55    30    54 1   
    56    30    55 1   
    57    34    56 1   
    58    36    57 1   
    59    37    57 1   
    60    38    57 1   
    61    47    58 1   
    62    48    58 1   
    63    49    58 1   
@<TRIPOS>SUBSTRUCTURE
     1 EO4         1 TEMP              0 ****  ****    0 ROOT
