@<TRIPOS>MOLECULE
EO5
   67    72     1     0     0
SMALL
No Charge or Current Charge


@<TRIPOS>ATOM
      1 C1           6.4120     0.7490    -1.3840 c3         1 EO5      -0.384100
      2 C6           3.6750    -0.3620     0.1280 ca         1 EO5       0.276000
      3 C7           2.8430    -1.4650    -0.1110 ca         1 EO5      -0.182000
      4 C8           1.5020    -1.2920    -0.4940 ca         1 EO5       0.038200
      5 C12          3.1500     0.9340    -0.0240 ca         1 EO5      -0.129000
      6 C16         -0.9030    -4.0890    -0.7640 ca         1 EO5       0.147500
      7 C18         -2.6840    -4.2370     0.6680 ca         1 EO5       0.183900
      8 C24         -1.4700    -0.0880     3.6780 c3         1 EO5      -0.095100
      9 C30         -1.8970     4.4780    -0.6710 cc         1 EO5      -0.036300
     10 C31         -2.4090     5.0800    -1.9520 c3         1 EO5      -0.026800
     11 C32         -2.0990     3.2200    -0.1550 cd         1 EO5      -0.330600
     12 C33         -2.8610     2.1030    -0.6730 c          1 EO5       0.608600
     13 C36         -3.5170    -0.2020    -0.2010 ca         1 EO5       0.028600
     14 C37         -3.1280    -0.9370    -1.3380 ca         1 EO5      -0.092500
     15 C38         -3.8850    -2.0420    -1.7620 ca         1 EO5      -0.099000
     16 C39         -5.0560    -2.3990    -1.0720 ca         1 EO5      -0.098000
     17 C40         -5.4770    -1.6380     0.0320 ca         1 EO5      -0.099000
     18 S2           6.3410     0.3470     0.3490 s6         1 EO5       1.188100
     19 O3           7.4650    -0.5300     0.6770 o          1 EO5      -0.520500
     20 O4           6.0930     1.5630     1.1260 o          1 EO5      -0.520500
     21 N5           4.9920    -0.6080     0.5110 nu         1 EO5      -0.869100
     22 C9           0.9880     0.0080    -0.6430 ca         1 EO5      -0.221000
     23 C10          1.8180     1.1160    -0.4150 ca         1 EO5       0.166100
     24 O11          1.3420     2.3800    -0.5900 oh         1 EO5      -0.520100
     25 C13          0.6720    -2.4620    -0.7630 cc         1 EO5      -0.067400
     26 C14          0.9990    -3.3670    -1.7560 cd         1 EO5      -0.156100
     27 N15          0.0090    -4.3820    -1.7700 na         1 EO5      -0.312400
     28 N17         -1.9970    -4.7680    -0.3720 nb         1 EO5      -0.226000
     29 N19         -2.3790    -3.1060     1.3480 nb         1 EO5      -0.290000
     30 C20         -1.2830    -2.4410     0.9370 ca         1 EO5       0.441900
     31 N21         -0.9390    -1.2750     1.5990 nu         1 EO5      -0.938100
     32 C22         -1.8920    -0.3040     2.2040 c3         1 EO5       0.217200
     33 C25         -2.0300     0.9950     1.3720 cc         1 EO5       0.434900
     34 N26         -1.3530     2.0470     1.7920 n2         1 EO5      -0.562100
     35 N27         -1.4300     3.1790     1.0290 na         1 EO5       0.310400
     36 C28         -0.7650     4.3600     1.3150 cd         1 EO5      -0.112000
     37 C29         -1.0680     5.1730     0.2490 cc         1 EO5      -0.200000
     38 N35         -2.7960     0.9820     0.1720 n          1 EO5      -0.276500
     39 C41         -4.7200    -0.5320     0.4550 ca         1 EO5      -0.092500
     40 C42         -0.5280    -2.9280    -0.1350 ca         1 EO5      -0.242800
     41 H1           7.3090     1.3560    -1.5420 h1         1 EO5       0.103033
     42 H2           6.4670    -0.1920    -1.9400 h1         1 EO5       0.103033
     43 H3           5.5070     1.3080    -1.6380 h1         1 EO5       0.103033
     44 H4           3.2360    -2.4720     0.0020 ha         1 EO5       0.117000
     45 H5           3.7610     1.8100     0.1580 ha         1 EO5       0.164000
     46 H6          -3.5720    -4.7760     0.9930 h5         1 EO5       0.047100
     47 H7          -2.1580     0.6030     4.1780 hc         1 EO5       0.055033
     48 H8          -1.4900    -1.0390     4.2240 hc         1 EO5       0.055033
     49 H9          -0.4550     0.3220     3.7450 hc         1 EO5       0.055033
     50 H10         -3.5050     5.0940    -1.9640 hc         1 EO5       0.049700
     51 H11         -2.0570     6.1100    -2.0770 hc         1 EO5       0.049700
     52 H12         -2.0670     4.5000    -2.8180 hc         1 EO5       0.049700
     53 H13         -2.2310    -0.6600    -1.8850 ha         1 EO5       0.121500
     54 H14         -3.5660    -2.6200    -2.6270 ha         1 EO5       0.119500
     55 H15         -5.6420    -3.2540    -1.4000 ha         1 EO5       0.117000
     56 H16         -6.3950    -1.9000     0.5540 ha         1 EO5       0.119500
     57 H17          5.3220    -1.5630     0.4840 hn         1 EO5       0.487000
     58 H18         -0.0420     0.1450    -0.9610 ha         1 EO5       0.124000
     59 H19          0.4020     2.3270    -0.8560 ho         1 EO5       0.477000
     60 H20          1.8410    -3.3590    -2.4440 h4         1 EO5       0.220000
     61 H21         -0.0300    -5.1850    -2.3900 hn         1 EO5       0.367000
     62 H22         -0.0630    -0.8830     1.2540 hn         1 EO5       0.509000
     63 H23         -2.8930    -0.7500     2.2670 h1         1 EO5       0.111700
     64 H24         -0.1630     4.5120     2.2020 h4         1 EO5       0.167000
     65 H25         -0.7260     6.1950     0.1150 ha         1 EO5       0.145000
     66 H26         -5.0660     0.0680     1.2940 ha         1 EO5       0.121500
     67 O34         -3.4900     2.1320    -1.7220 o          1 EO5      -0.499000
@<TRIPOS>BOND
     1     1    18 1   
     2     1    41 1   
     3     1    42 1   
     4     1    43 1   
     5     2     3 ar  
     6     2     5 ar  
     7     2    21 1   
     8     3     4 ar  
     9     3    44 1   
    10     4    22 ar  
    11     4    25 1   
    12     5    23 ar  
    13     5    45 1   
    14     6    27 1   
    15     6    28 ar  
    16     6    40 ar  
    17     7    28 ar  
    18     7    29 ar  
    19     7    46 1   
    20     8    32 1   
    21     8    47 1   
    22     8    48 1   
    23     8    49 1   
    24     9    10 1   
    25     9    11 2   
    26     9    37 1   
    27    10    50 1   
    28    10    51 1   
    29    10    52 1   
    30    11    12 1   
    31    11    35 1   
    32    12    38 1   
    33    12    67 2   
    34    13    14 ar  
    35    13    38 1   
    36    13    39 ar  
    37    14    15 ar  
    38    14    53 1   
    39    15    16 ar  
    40    15    54 1   
    41    16    17 ar  
    42    16    55 1   
    43    17    39 ar  
    44    17    56 1   
    45    18    19 2   
    46    18    20 2   
    47    18    21 1   
    48    21    57 1   
    49    22    23 ar  
    50    22    58 1   
    51    23    24 1   
    52    24    59 1   
    53    25    26 2   
    54    25    40 1   
    55    26    27 1   
    56    26    60 1   
    57    27    61 1   
    58    29    30 ar  
    59    30    31 1   
    60    30    40 ar  
    61    31    32 1   
    62    31    62 1   
    63    32    33 1   
    64    32    63 1   
    65    33    34 2   
    66    33    38 1   
    67    34    35 1   
    68    35    36 1   
    69    36    37 2   
    70    36    64 1   
    71    37    65 1   
    72    39    66 1   
@<TRIPOS>SUBSTRUCTURE
     1 EO5         1 TEMP              0 ****  ****    0 ROOT
