@<TRIPOS>MOLECULE
EO5
   67    72     1     0     0
SMALL
abcg2


@<TRIPOS>ATOM
      1 C1           6.1810    -0.6010    -1.8590 c3         1 EO5      -0.384100
      2 C6           3.6940     0.0560     0.1740 ca         1 EO5       0.276000
      3 C7           2.9870    -1.1240    -0.0340 ca         1 EO5      -0.182000
      4 C8           1.6410    -1.0760    -0.3850 ca         1 EO5       0.038200
      5 C12          3.0760     1.2900     0.0430 ca         1 EO5      -0.129000
      6 C16         -0.6380    -4.0130    -0.5930 ca         1 EO5       0.147500
      7 C18         -2.5430    -4.1650     0.5130 ca         1 EO5       0.183900
      8 C24         -1.8730    -0.2320     3.7000 c3         1 EO5      -0.095100
      9 C30         -1.8420     4.5350    -0.3710 cc         1 EO5      -0.036300
     10 C31         -2.1890     5.1560    -1.6820 c3         1 EO5      -0.026800
     11 C32         -2.1240     3.2420     0.0460 cd         1 EO5      -0.330600
     12 C33         -2.8270     2.1500    -0.5550 c          1 EO5       0.608600
     13 C36         -3.5230    -0.1430    -0.3090 ca         1 EO5       0.028600
     14 C37         -2.9320    -0.8700    -1.3320 ca         1 EO5      -0.092500
     15 C38         -3.5920    -1.9660    -1.8640 ca         1 EO5      -0.099000
     16 C39         -4.8370    -2.3350    -1.3720 ca         1 EO5      -0.098000
     17 C40         -5.4270    -1.5970    -0.3550 ca         1 EO5      -0.099000
     18 S2           6.2580     0.4910    -0.4590 s6         1 EO5       1.188100
     19 O3           7.5000     0.2580     0.2560 o          1 EO5      -0.520500
     20 O4           5.9230     1.8310    -0.9060 o          1 EO5      -0.520500
     21 N5           5.0510    -0.0100     0.5770 nu         1 EO5      -0.869100
     22 C9           1.0230     0.1660    -0.5480 ca         1 EO5      -0.221000
     23 C10          1.7370     1.3410    -0.3340 ca         1 EO5       0.166100
     24 O11          1.1890     2.5640    -0.4640 oh         1 EO5      -0.520100
     25 C13          0.9010    -2.3260    -0.6080 cc         1 EO5      -0.067400
     26 C14          1.3020    -3.3380    -1.4370 cd         1 EO5      -0.156100
     27 N15          0.3750    -4.3440    -1.4290 na         1 EO5      -0.312400
     28 N17         -1.7260    -4.7440    -0.3430 nb         1 EO5      -0.226000
     29 N19         -2.3810    -3.0030     1.1420 nb         1 EO5      -0.290000
     30 C20         -1.2940    -2.2840     0.8830 ca         1 EO5       0.441900
     31 N21         -1.1220    -1.1090     1.5250 nu         1 EO5      -0.938100
     32 C22         -2.1610    -0.3760     2.2140 c3         1 EO5       0.217200
     33 C25         -2.2650     0.9550     1.4950 cc         1 EO5       0.434900
     34 N26         -1.6870     1.9550     2.0450 n2         1 EO5      -0.562100
     35 N27         -1.6380     3.0940     1.3280 na         1 EO5       0.310400
     36 C28         -1.0530     4.2350     1.7320 cd         1 EO5      -0.112000
     37 C29         -1.1650     5.1470     0.7000 cc         1 EO5      -0.200000
     38 N35         -2.8420     0.9930     0.2360 n          1 EO5      -0.276500
     39 C41         -4.7750    -0.4920     0.1720 ca         1 EO5      -0.092500
     40 C42         -0.3470    -2.7580    -0.0460 ca         1 EO5      -0.242800
     41 H1           6.9350    -0.2800    -2.5760 h1         1 EO5       0.103033
     42 H2           6.3860    -1.6170    -1.5300 h1         1 EO5       0.103033
     43 H3           5.1940    -0.5410    -2.3130 h1         1 EO5       0.103033
     44 H4           3.4780    -2.0790     0.1020 ha         1 EO5       0.117000
     45 H5           3.6130     2.2060     0.2450 ha         1 EO5       0.164000
     46 H6          -3.4550    -4.7030     0.7510 h5         1 EO5       0.047100
     47 H7          -2.6540     0.3430     4.1950 hc         1 EO5       0.055033
     48 H8          -1.8460    -1.2260     4.1440 hc         1 EO5       0.055033
     49 H9          -0.9160     0.2540     3.8870 hc         1 EO5       0.055033
     50 H10         -3.2650     5.1580    -1.8520 hc         1 EO5       0.049700
     51 H11         -1.8420     6.1870    -1.7180 hc         1 EO5       0.049700
     52 H12         -1.7340     4.6210    -2.5150 hc         1 EO5       0.049700
     53 H13         -1.9590    -0.5910    -1.7140 ha         1 EO5       0.121500
     54 H14         -3.1270    -2.5380    -2.6550 ha         1 EO5       0.119500
     55 H15         -5.3480    -3.1950    -1.7830 ha         1 EO5       0.117000
     56 H16         -6.4000    -1.8760     0.0260 ha         1 EO5       0.119500
     57 H17          5.3010    -0.8830     1.0310 hn         1 EO5       0.487000
     58 H18         -0.0090     0.2150    -0.8760 ha         1 EO5       0.124000
     59 H19          0.2750     2.5140    -0.7650 ho         1 EO5       0.477000
     60 H20          2.1790    -3.4010    -2.0600 h4         1 EO5       0.220000
     61 H21          0.4270    -5.1890    -1.9740 hn         1 EO5       0.367000
     62 H22         -0.2340    -0.6450     1.4210 hn         1 EO5       0.509000
     63 H23         -3.0830    -0.9430     2.1000 h1         1 EO5       0.111700
     64 H24         -0.5970     4.3140     2.7050 h4         1 EO5       0.167000
     65 H25         -0.7910     6.1590     0.7180 ha         1 EO5       0.145000
     66 H26         -5.2360     0.0960     0.9560 ha         1 EO5       0.121500
     67 O34         -3.3600     2.1770    -1.6450 o          1 EO5      -0.499000
@<TRIPOS>BOND
     1     1    18 1   
     2     1    41 1   
     3     1    42 1   
     4     1    43 1   
     5     2     3 ar  
     6     2     5 ar  
     7     2    21 1   
     8     3     4 ar  
     9     3    44 1   
    10     4    22 ar  
    11     4    25 1   
    12     5    23 ar  
    13     5    45 1   
    14     6    27 1   
    15     6    28 ar  
    16     6    40 ar  
    17     7    28 ar  
    18     7    29 ar  
    19     7    46 1   
    20     8    32 1   
    21     8    47 1   
    22     8    48 1   
    23     8    49 1   
    24     9    10 1   
    25     9    11 2   
    26     9    37 1   
    27    10    50 1   
    28    10    51 1   
    29    10    52 1   
    30    11    12 1   
    31    11    35 1   
    32    12    38 1   
    33    12    67 2   
    34    13    14 ar  
    35    13    38 1   
    36    13    39 ar  
    37    14    15 ar  
    38    14    53 1   
    39    15    16 ar  
    40    15    54 1   
    41    16    17 ar  
    42    16    55 1   
    43    17    39 ar  
    44    17    56 1   
    45    18    19 2   
    46    18    20 2   
    47    18    21 1   
    48    21    57 1   
    49    22    23 ar  
    50    22    58 1   
    51    23    24 1   
    52    24    59 1   
    53    25    26 2   
    54    25    40 1   
    55    26    27 1   
    56    26    60 1   
    57    27    61 1   
    58    29    30 ar  
    59    30    31 1   
    60    30    40 ar  
    61    31    32 1   
    62    31    62 1   
    63    32    33 1   
    64    32    63 1   
    65    33    34 2   
    66    33    38 1   
    67    34    35 1   
    68    35    36 1   
    69    36    37 2   
    70    36    64 1   
    71    37    65 1   
    72    39    66 1   
@<TRIPOS>SUBSTRUCTURE
     1 EO5         1 TEMP              0 ****  ****    0 ROOT
