@<TRIPOS>MOLECULE
EO7
   37    39     1     0     0
SMALL
bcc


@<TRIPOS>ATOM
      1 C19         -0.2690     1.2610    -0.7730 cc         1 EO7       0.404700
      2 C22         -2.2670     1.7490    -0.3000 ca         1 EO7      -0.238200
      3 C21         -2.0910     0.4380     0.1080 ca         1 EO7       0.480800
      4 C23         -3.5440     2.3020    -0.0880 ca         1 EO7       0.795200
      5 C26         -4.1420     0.2950     0.8230 ca         1 EO7       0.813000
      6 C4           1.4710    -2.6880    -0.6850 c5         1 EO7       0.086100
      7 C2           0.3280    -1.8310    -1.2360 c5         1 EO7       0.057100
      8 C7           2.0860    -1.7300     0.3290 c5         1 EO7       0.141100
      9 C16         -0.1390    -1.1230     0.0350 c5         1 EO7       0.261800
     10 C9           3.1740    -0.8820    -0.2970 c3         1 EO7       0.164400
     11 N20         -1.1130     2.2460    -0.8460 nd         1 EO7      -0.552100
     12 N28         -3.0060    -0.3430     0.6830 nb         1 EO7      -0.728000
     13 N25         -4.4730     1.5250     0.4870 nb         1 EO7      -0.818000
     14 N18         -0.8010     0.1330    -0.2040 na         1 EO7      -0.253000
     15 N24         -3.8630     3.5450    -0.4300 nv         1 EO7      -0.946500
     16 N13          3.2080     2.2040    -0.4350 n8         1 EO7      -0.951700
     17 O12          5.3630     1.0210    -0.7730 o          1 EO7      -0.620300
     18 O14          4.8580     1.9010     1.5180 o          1 EO7      -0.620300
     19 O15          1.0190    -0.9020     0.7920 os         1 EO7      -0.385600
     20 O6           0.9760    -3.8050     0.0030 oh         1 EO7      -0.576800
     21 O1          -0.7320    -2.5420    -1.7960 oh         1 EO7      -0.566800
     22 O10          3.6340     0.0230     0.7170 os         1 EO7      -0.519500
     23 S11          4.4110     1.3400     0.2670 s6         1 EO7       1.539400
     24 CL          -5.4160    -0.6210     1.5660 cl         1 EO7      -0.132000
     25 H1           0.7570     1.3010    -1.1090 h5         1 EO7       0.072800
     26 H2           2.1850    -2.9750    -1.4690 h1         1 EO7       0.057700
     27 H3           0.7420    -1.0980    -1.9410 h1         1 EO7       0.050700
     28 H4           2.5020    -2.2790     1.1790 h1         1 EO7       0.116700
     29 H5          -0.8580    -1.7500     0.5720 h2         1 EO7       0.128700
     30 H6           3.9980    -1.5180    -0.6230 h1         1 EO7       0.056700
     31 H7           2.7980    -0.3290    -1.1630 h1         1 EO7       0.056700
     32 H8          -3.1890     4.1530    -0.8630 hn         1 EO7       0.456300
     33 H9          -4.7930     3.8960    -0.2750 hn         1 EO7       0.456300
     34 H10          2.6350     2.7130     0.2290 hn         1 EO7       0.434300
     35 H11          3.5460     2.8120    -1.1730 hn         1 EO7       0.434300
     36 H12          0.3060    -4.2250    -0.5500 ho         1 EO7       0.428000
     37 H13         -0.5200    -2.7520    -2.7110 ho         1 EO7       0.418000
@<TRIPOS>BOND
     1     1    11 2   
     2     1    14 1   
     3     1    25 1   
     4     2     3 ar  
     5     2     4 ar  
     6     2    11 1   
     7     3    12 ar  
     8     3    14 1   
     9     4    13 ar  
    10     4    15 1   
    11     5    12 ar  
    12     5    13 ar  
    13     5    24 1   
    14     6     7 1   
    15     6     8 1   
    16     6    20 1   
    17     6    26 1   
    18     7     9 1   
    19     7    21 1   
    20     7    27 1   
    21     8    10 1   
    22     8    19 1   
    23     8    28 1   
    24     9    14 1   
    25     9    19 1   
    26     9    29 1   
    27    10    22 1   
    28    10    30 1   
    29    10    31 1   
    30    15    32 1   
    31    15    33 1   
    32    16    23 1   
    33    16    34 1   
    34    16    35 1   
    35    17    23 2   
    36    18    23 2   
    37    20    36 1   
    38    21    37 1   
    39    22    23 1   
@<TRIPOS>SUBSTRUCTURE
     1 EO7         1 TEMP              0 ****  ****    0 ROOT
