@<TRIPOS>MOLECULE
EO7
   37    39     1     0     0
SMALL
No Charge or Current Charge


@<TRIPOS>ATOM
      1 C19         -0.6160     0.7360    -1.6710 cc         1 EO7       0.404700
      2 C22         -2.3470     1.5570    -0.6920 ca         1 EO7      -0.107600
      3 C21         -2.0360     0.4260     0.0180 ca         1 EO7       0.152500
      4 C23         -3.4560     2.3200    -0.2730 ca         1 EO7       0.466900
      5 C26         -3.7940     0.8250     1.4200 ca         1 EO7       0.287000
      6 C4           1.6150    -2.8300    -0.5530 c5         1 EO7       0.109300
      7 C2           0.4570    -2.1750    -1.3560 c5         1 EO7       0.080300
      8 C7           2.0270    -1.6350     0.3670 c5         1 EO7       0.164300
      9 C16         -0.2530    -1.3430    -0.2230 c5         1 EO7       0.314300
     10 C9           2.9110    -0.5670    -0.3350 c3         1 EO7       0.187600
     11 N20         -1.4680     1.7740    -1.7570 nd         1 EO7      -0.552100
     12 N28         -2.7500     0.0300     1.0880 nb         1 EO7      -0.202000
     13 N25         -4.1860     1.9590     0.7920 nb         1 EO7      -0.292000
     14 N18         -0.9390    -0.1060    -0.5990 na         1 EO7      -0.282300
     15 N24         -3.8410     3.4580    -0.9090 nv         1 EO7      -1.056900
     16 N13          3.3190     2.7030     0.5650 n8         1 EO7      -1.062100
     17 O12          4.5140     1.5520    -1.2840 o          1 EO7      -0.549500
     18 O14          5.4970     1.7230     1.0820 o          1 EO7      -0.549500
     19 O15          0.7610    -1.0430     0.7690 os         1 EO7      -0.432000
     20 O6           1.1290    -3.9670     0.1730 oh         1 EO7      -0.699000
     21 O1          -0.3790    -3.1810    -1.9630 oh         1 EO7      -0.689000
     22 O10          3.4390     0.3110     0.6770 os         1 EO7      -0.542700
     23 S11          4.3710     1.5490     0.1710 s6         1 EO7       1.397800
     24 Cl          -4.7420     0.3340     2.8140 cl         1 EO7      -0.132000
     25 H1           0.2240     0.5520    -2.3300 h5         1 EO7       0.072800
     26 H2           2.4390    -3.1290    -1.2160 h1         1 EO7       0.057700
     27 H3           0.8760    -1.5190    -2.1300 h1         1 EO7       0.050700
     28 H4           2.5650    -1.9910     1.2560 h1         1 EO7       0.116700
     29 H5          -1.0160    -1.9760     0.2480 h2         1 EO7       0.128700
     30 H6           3.7270    -1.0770    -0.8670 h1         1 EO7       0.056700
     31 H7           2.3120    -0.0130    -1.0700 h1         1 EO7       0.056700
     32 H8          -3.1760     3.8570    -1.5670 hn         1 EO7       0.511500
     33 H9          -4.4310     4.1150    -0.4050 hn         1 EO7       0.511500
     34 H10          2.6890     2.1190     1.1080 hn         1 EO7       0.489500
     35 H11          3.8760     3.1780     1.2700 hn         1 EO7       0.489500
     36 H12          0.4060    -4.3200    -0.4050 ho         1 EO7       0.527000
     37 H13         -0.9420    -2.7400    -2.6450 ho         1 EO7       0.517000
@<TRIPOS>BOND
     1     1    11 2   
     2     1    14 1   
     3     1    25 1   
     4     2     3 ar  
     5     2     4 ar  
     6     2    11 1   
     7     3    12 ar  
     8     3    14 1   
     9     4    13 ar  
    10     4    15 1   
    11     5    12 ar  
    12     5    13 ar  
    13     5    24 1   
    14     6     7 1   
    15     6     8 1   
    16     6    20 1   
    17     6    26 1   
    18     7     9 1   
    19     7    21 1   
    20     7    27 1   
    21     8    10 1   
    22     8    19 1   
    23     8    28 1   
    24     9    14 1   
    25     9    19 1   
    26     9    29 1   
    27    10    22 1   
    28    10    30 1   
    29    10    31 1   
    30    15    32 1   
    31    15    33 1   
    32    16    23 1   
    33    16    34 1   
    34    16    35 1   
    35    17    23 2   
    36    18    23 2   
    37    20    36 1   
    38    21    37 1   
    39    22    23 1   
@<TRIPOS>SUBSTRUCTURE
     1 EO7         1 TEMP              0 ****  ****    0 ROOT
