@<TRIPOS>MOLECULE
EO8
   30    31     1     0     0
SMALL
No Charge or Current Charge


@<TRIPOS>ATOM
      1 C10         -4.7150    -0.0830    -1.9080 ca         1 EO8      -0.149000
      2 C13         -3.0890     0.2500     0.3830 ca         1 EO8      -0.111600
      3 C21          3.6520     1.6680    -0.2370 c          1 EO8       0.721600
      4 C01         -0.0380     0.7990    -0.7600 ca         1 EO8      -0.056000
      5 C02          1.1670     1.5120    -0.6550 ca         1 EO8      -0.115000
      6 C03          2.3640     0.8660    -0.2810 ca         1 EO8      -0.078600
      7 C04          2.3300    -0.5260     0.0020 ca         1 EO8      -0.154200
      8 C05          1.1150    -1.2390    -0.1150 ca         1 EO8      -0.044000
      9 C06         -0.0780    -0.5850    -0.4890 ca         1 EO8      -0.137600
     10 C07         -1.3670    -1.3730    -0.6160 c          1 EO8       0.665300
     11 C08         -2.6780    -0.6220    -0.6660 ca         1 EO8      -0.118600
     12 C09         -3.5070    -0.7880    -1.7960 ca         1 EO8      -0.111000
     13 C11         -5.1110     0.7940    -0.8900 ca         1 EO8      -0.144000
     14 C12         -4.3050     0.9570     0.2490 ca         1 EO8      -0.094000
     15 C14         -2.2790     0.4130     1.6550 c          1 EO8       0.708600
     16 O15         -1.8030    -0.5880     2.1700 o          1 EO8      -0.704000
     17 O16         -2.1940     1.5290     2.1470 o          1 EO8      -0.704000
     18 O17         -1.3520    -2.5980    -0.7200 o          1 EO8      -0.578100
     19 O19          3.7390    -2.3920     0.0020 o          1 EO8      -0.425500
     20 O20          4.1660    -0.7940     1.4260 o          1 EO8      -0.425500
     21 O22          4.6220     1.2380    -0.8460 o          1 EO8      -0.711000
     22 O23          3.6390     2.7520     0.3310 o          1 EO8      -0.711000
     23 H101        -5.3420    -0.2140    -2.7880 ha         1 EO8       0.080000
     24 H011        -0.9350     1.3320    -1.0690 ha         1 EO8       0.112000
     25 H021         1.1760     2.5760    -0.8830 ha         1 EO8       0.126000
     26 H051         1.0960    -2.3050     0.1060 ha         1 EO8       0.131000
     27 H091        -3.2040    -1.4580    -2.5980 ha         1 EO8       0.098000
     28 H111        -6.0460     1.3420    -0.9760 ha         1 EO8       0.079000
     29 H121        -4.6340     1.6270     1.0410 ha         1 EO8       0.122000
     30 N18          3.5530    -1.2530     0.4510 no         1 EO8       0.729200
@<TRIPOS>BOND
     1     1    12 ar  
     2     1    13 ar  
     3     1    23 1   
     4     2    11 ar  
     5     2    14 ar  
     6     2    15 1   
     7     3     6 1   
     8     3    21 1   
     9     3    22 1   
    10     4     5 ar  
    11     4     9 ar  
    12     4    24 1   
    13     5     6 ar  
    14     5    25 1   
    15     6     7 ar  
    16     7     8 ar  
    17     7    30 1   
    18     8     9 ar  
    19     8    26 1   
    20     9    10 1   
    21    10    11 1   
    22    10    18 2   
    23    11    12 ar  
    24    12    27 1   
    25    13    14 ar  
    26    13    28 1   
    27    14    29 1   
    28    15    16 1   
    29    15    17 1   
    30    19    30 1   
    31    20    30 1   
@<TRIPOS>SUBSTRUCTURE
     1 EO8         1 TEMP              0 ****  ****    0 ROOT
