@<TRIPOS>MOLECULE
EO8
   30    31     1     0     0
SMALL
bcc


@<TRIPOS>ATOM
      1 C10         -4.3600     0.0350    -2.0480 ca         1 EO8      -0.167000
      2 C13         -3.2780     0.2490     0.5140 ca         1 EO8      -0.111600
      3 C21          3.7050     1.5510    -0.5930 c          1 EO8       0.932200
      4 C01         -0.0440     0.8380    -0.5020 ca         1 EO8      -0.074000
      5 C02          1.1720     1.4990    -0.5760 ca         1 EO8      -0.133000
      6 C03          2.3750     0.8300    -0.3850 ca         1 EO8      -0.078600
      7 C04          2.2910    -0.5300    -0.1070 ca         1 EO8      -0.154200
      8 C05          1.0960    -1.2160    -0.0400 ca         1 EO8      -0.062000
      9 C06         -0.0950    -0.5250    -0.2300 ca         1 EO8      -0.137600
     10 C07         -1.3810    -1.2800    -0.1680 c          1 EO8       0.665300
     11 C08         -2.6480    -0.5310    -0.4520 ca         1 EO8      -0.118600
     12 C09         -3.1920    -0.6430    -1.7280 ca         1 EO8      -0.129000
     13 C11         -4.9890     0.8200    -1.0900 ca         1 EO8      -0.162000
     14 C12         -4.4490     0.9220     0.1840 ca         1 EO8      -0.112000
     15 C14         -2.6820     0.3160     1.9050 c          1 EO8       0.919200
     16 O15         -1.6790    -0.4120     2.0790 o          1 EO8      -0.809300
     17 O16         -3.2200     1.0630     2.7360 o          1 EO8      -0.809300
     18 O17         -1.3870    -2.4930    -0.0980 o          1 EO8      -0.578100
     19 O19          3.7530    -2.2360    -0.5190 o          1 EO8      -0.235500
     20 O20          4.1200    -0.9840     1.1760 o          1 EO8      -0.235500
     21 O22          4.6370     0.8360    -0.9970 o          1 EO8      -0.816300
     22 O23          3.7050     2.7720    -0.3740 o          1 EO8      -0.816300
     23 H101        -4.7760    -0.0500    -3.0430 ha         1 EO8       0.098000
     24 H011        -0.9580     1.3950    -0.6670 ha         1 EO8       0.130000
     25 H021         1.1930     2.5570    -0.7980 ha         1 EO8       0.144000
     26 H051         1.0790    -2.2760     0.1800 ha         1 EO8       0.149000
     27 H091        -2.7000    -1.2490    -2.4790 ha         1 EO8       0.116000
     28 H111        -5.9020     1.3470    -1.3360 ha         1 EO8       0.097000
     29 H121        -4.9400     1.5270     0.9340 ha         1 EO8       0.140000
     30 N18          3.4960    -1.2960     0.1930 no         1 EO8       0.349200
@<TRIPOS>BOND
     1     1    12 ar  
     2     1    13 ar  
     3     1    23 1   
     4     2    11 ar  
     5     2    14 ar  
     6     2    15 1   
     7     3     6 1   
     8     3    21 1   
     9     3    22 1   
    10     4     5 ar  
    11     4     9 ar  
    12     4    24 1   
    13     5     6 ar  
    14     5    25 1   
    15     6     7 ar  
    16     7     8 ar  
    17     7    30 1   
    18     8     9 ar  
    19     8    26 1   
    20     9    10 1   
    21    10    11 1   
    22    10    18 2   
    23    11    12 ar  
    24    12    27 1   
    25    13    14 ar  
    26    13    28 1   
    27    14    29 1   
    28    15    16 1   
    29    15    17 1   
    30    19    30 1   
    31    20    30 1   
@<TRIPOS>SUBSTRUCTURE
     1 EO8         1 TEMP              0 ****  ****    0 ROOT
