@<TRIPOS>MOLECULE
EOA
   22    22     1     0     0
SMALL
bcc


@<TRIPOS>ATOM
      1 C1           0.0090    -0.5350     1.0150 ca         1 EOA      -0.083300
      2 C2          -1.1930    -0.2490     1.6580 ca         1 EOA      -0.122000
      3 C3          -1.2060     0.3280     2.9210 ca         1 EOA      -0.126000
      4 C4          -0.0120     0.6310     3.5610 ca         1 EOA      -0.125000
      5 C5           1.1930     0.3500     2.9300 ca         1 EOA      -0.126000
      6 C6           1.2010    -0.2270     1.6670 ca         1 EOA      -0.122000
      7 C7           0.0190    -1.1170    -0.3700 c3         1 EOA      -0.048100
      8 C8           0.0200    -0.0150    -1.4240 c3         1 EOA       0.100000
      9 N1           0.0220    -0.5860    -2.7550 ns         1 EOA      -0.587900
     10 C9          -0.0460     0.1520    -3.8650 c          1 EOA       0.662900
     11 O1          -0.1220     1.3700    -3.8910 o          1 EOA      -0.603100
     12 H2          -2.1310    -0.4850     1.1680 ha         1 EOA       0.129000
     13 H3          -2.1510     0.5380     3.4060 ha         1 EOA       0.131500
     14 H4          -0.0200     1.0800     4.5460 ha         1 EOA       0.132000
     15 H5           2.1300     0.5770     3.4230 ha         1 EOA       0.131500
     16 H6           2.1470    -0.4460     1.1850 ha         1 EOA       0.129000
     17 H71         -0.8560    -1.7560    -0.5140 hc         1 EOA       0.049200
     18 H72          0.9010    -1.7500    -0.5040 hc         1 EOA       0.049200
     19 H81          0.8960     0.6260    -1.2890 h1         1 EOA       0.056700
     20 H82         -0.8610     0.6190    -1.2950 h1         1 EOA       0.056700
     21 HN1          0.0880    -1.5860    -2.8560 hn         1 EOA       0.312500
     22 H9          -0.0270    -0.4620    -4.7790 h5         1 EOA       0.005200
@<TRIPOS>BOND
     1     1     2 ar  
     2     1     6 ar  
     3     1     7 1   
     4     2     3 ar  
     5     2    12 1   
     6     3     4 ar  
     7     3    13 1   
     8     4     5 ar  
     9     4    14 1   
    10     5     6 ar  
    11     5    15 1   
    12     6    16 1   
    13     7     8 1   
    14     7    17 1   
    15     7    18 1   
    16     8     9 1   
    17     8    19 1   
    18     8    20 1   
    19     9    10 1   
    20     9    21 1   
    21    10    11 2   
    22    10    22 1   
@<TRIPOS>SUBSTRUCTURE
     1 EOA         1 TEMP              0 ****  ****    0 ROOT
