@<TRIPOS>MOLECULE
EOA
   22    22     1     0     0
SMALL
No Charge or Current Charge


@<TRIPOS>ATOM
      1 C1           0.0070    -0.5070     1.0360 ca         1 EOA      -0.083300
      2 C2          -1.2130    -0.2430     1.6890 ca         1 EOA      -0.104000
      3 C3          -1.2190     0.3160     2.9790 ca         1 EOA      -0.108000
      4 C4          -0.0070     0.6150     3.6230 ca         1 EOA      -0.107000
      5 C5           1.2130     0.3560     2.9740 ca         1 EOA      -0.108000
      6 C6           1.2200    -0.2030     1.6850 ca         1 EOA      -0.104000
      7 C7           0.0140    -1.1070    -0.3640 c3         1 EOA      -0.048100
      8 C8          -0.0030    -0.0200    -1.4550 c3         1 EOA       0.100000
      9 N1           0.0040    -0.5950    -2.8030 ns         1 EOA      -0.520900
     10 C9          -0.0110     0.1460    -3.9630 c          1 EOA       0.595900
     11 O1          -0.0320     1.3710    -3.9660 o          1 EOA      -0.603100
     12 H2          -2.1560    -0.4700     1.1980 ha         1 EOA       0.111000
     13 H3          -2.1640     0.5170     3.4790 ha         1 EOA       0.113500
     14 H4          -0.0120     1.0480     4.6210 ha         1 EOA       0.114000
     15 H5           2.1530     0.5890     3.4710 ha         1 EOA       0.113500
     16 H6           2.1680    -0.3980     1.1890 ha         1 EOA       0.111000
     17 H71         -0.8540    -1.7630    -0.4970 hc         1 EOA       0.049200
     18 H72          0.9020    -1.7370    -0.4990 hc         1 EOA       0.049200
     19 H81          0.8770     0.6270    -1.3400 h1         1 EOA       0.056700
     20 H82         -0.9020     0.6000    -1.3380 h1         1 EOA       0.056700
     21 HN1          0.0210    -1.6030    -2.9060 hn         1 EOA       0.312500
     22 H9          -0.0020    -0.4810    -4.8740 h5         1 EOA       0.005200
@<TRIPOS>BOND
     1     1     2 ar  
     2     1     6 ar  
     3     1     7 1   
     4     2     3 ar  
     5     2    12 1   
     6     3     4 ar  
     7     3    13 1   
     8     4     5 ar  
     9     4    14 1   
    10     5     6 ar  
    11     5    15 1   
    12     6    16 1   
    13     7     8 1   
    14     7    17 1   
    15     7    18 1   
    16     8     9 1   
    17     8    19 1   
    18     8    20 1   
    19     9    10 1   
    20     9    21 1   
    21    10    11 2   
    22    10    22 1   
@<TRIPOS>SUBSTRUCTURE
     1 EOA         1 TEMP              0 ****  ****    0 ROOT
