@<TRIPOS>MOLECULE
EOB
   32    32     1     0     0
SMALL
abcg2


@<TRIPOS>ATOM
      1 OAF          5.0110    -2.7760    -0.9930 o          1 EOB      -0.898833
      2 PAU          4.0950    -1.7950    -0.2700 p5         1 EOB       1.301500
      3 OAE          2.5960    -1.9620    -0.6450 o          1 EOB      -0.898833
      4 OAC          4.3340    -1.6590     1.2300 o          1 EOB      -0.898833
      5 CAM          4.5010    -0.1130    -1.0060 c3         1 EOB      -0.479400
      6 CAQ          3.6000     1.0080    -0.5590 c          1 EOB       0.641100
      7 OAA          4.0160     2.1150    -0.2350 o          1 EOB      -0.741600
      8 NAO          2.2880     0.6590    -0.5730 ns         1 EOB      -0.178500
      9 CAS          1.1790     1.4360    -0.2640 ca         1 EOB       0.043000
     10 CAL         -0.0090     0.7530     0.0050 ca         1 EOB      -0.211000
     11 CAJ          1.1710     2.8350    -0.2510 ca         1 EOB      -0.241500
     12 CAI         -0.0180     3.4930     0.0270 ca         1 EOB      -0.110000
     13 CAK         -1.2010     2.8230     0.2940 ca         1 EOB      -0.241500
     14 CAT         -1.2010     1.4230     0.2850 ca         1 EOB       0.043000
     15 NAP         -2.3040     0.6350     0.5830 ns         1 EOB      -0.178500
     16 CAR         -3.6190     0.9770     0.5740 c          1 EOB       0.641100
     17 OAB         -4.0410     2.0860     0.2660 o          1 EOB      -0.741600
     18 CAN         -4.5130    -0.1560     1.0030 c3         1 EOB      -0.479400
     19 PAV         -4.0950    -1.8250     0.2430 p5         1 EOB       1.301500
     20 OAH         -5.0030    -2.8240     0.9530 o          1 EOB      -0.898833
     21 OAG         -4.3370    -1.6690    -1.2540 o          1 EOB      -0.898833
     22 OAD         -2.5950    -1.9860     0.6140 o          1 EOB      -0.898833
     23 HAM1         5.5360     0.1660    -0.7990 hc         1 EOB       0.026200
     24 HAM2         4.4060    -0.1990    -2.0940 hc         1 EOB       0.026200
     25 HAO          2.1560    -0.3800    -0.6650 hn         1 EOB       0.250000
     26 HAL         -0.0050    -0.3320    -0.0040 ha         1 EOB       0.177000
     27 HAJ          2.0640     3.4010    -0.4570 ha         1 EOB       0.102000
     28 HAI         -0.0210     4.5760     0.0360 ha         1 EOB       0.039000
     29 HAK         -2.0980     3.3790     0.5110 ha         1 EOB       0.102000
     30 HAP         -2.1670    -0.4060     0.6580 hn         1 EOB       0.250000
     31 HAN1        -4.4180    -0.2570     2.0910 hc         1 EOB       0.026200
     32 HAN2        -5.5500     0.1180     0.8000 hc         1 EOB       0.026200
@<TRIPOS>BOND
     1     1     2 1   
     2     2     3 1   
     3     2     4 1   
     4     2     5 1   
     5     5     6 1   
     6     5    23 1   
     7     5    24 1   
     8     6     7 2   
     9     6     8 1   
    10     8     9 1   
    11     8    25 1   
    12     9    10 ar  
    13     9    11 ar  
    14    10    14 ar  
    15    10    26 1   
    16    11    12 ar  
    17    11    27 1   
    18    12    13 ar  
    19    12    28 1   
    20    13    14 ar  
    21    13    29 1   
    22    14    15 1   
    23    15    16 1   
    24    15    30 1   
    25    16    17 2   
    26    16    18 1   
    27    18    19 1   
    28    18    31 1   
    29    18    32 1   
    30    19    20 1   
    31    19    21 1   
    32    19    22 1   
@<TRIPOS>SUBSTRUCTURE
     1 EOB         1 TEMP              0 ****  ****    0 ROOT
