@<TRIPOS>MOLECULE
EOB
   32    32     1     0     0
SMALL
No Charge or Current Charge


@<TRIPOS>ATOM
      1 OAF          6.1910    -1.9540     0.3650 o          1 EOB      -0.898833
      2 PAU          5.4400    -0.6680     0.4050 p5         1 EOB       1.301500
      3 OAE          4.4510    -0.6850     1.5180 o          1 EOB      -0.898833
      4 OAC          6.3870     0.4740     0.5380 o          1 EOB      -0.898833
      5 CAM          4.5460    -0.5350    -1.1550 c3         1 EOB      -0.479400
      6 CAQ          3.6250     0.6440    -0.9740 c          1 EOB       0.641100
      7 OAA          3.9840     1.7800    -1.2680 o          1 EOB      -0.741600
      8 NAO          2.3530     0.3060    -0.5380 ns         1 EOB      -0.178500
      9 CAS          1.1870     1.0740    -0.2680 ca         1 EOB       0.043000
     10 CAL         -0.0080     0.3790     0.0030 ca         1 EOB      -0.211000
     11 CAJ          1.1720     2.4840    -0.2460 ca         1 EOB      -0.241500
     12 CAI         -0.0160     3.1760     0.0280 ca         1 EOB      -0.110000
     13 CAK         -1.2000     2.4710     0.2910 ca         1 EOB      -0.241500
     14 CAT         -1.2070     1.0620     0.2860 ca         1 EOB       0.043000
     15 NAP         -2.3670     0.2810     0.5420 ns         1 EOB      -0.178500
     16 CAR         -3.6420     0.6030     0.9830 c          1 EOB       0.641100
     17 OAB         -4.0080     1.7310     1.2970 o          1 EOB      -0.741600
     18 CAN         -4.5550    -0.5850     1.1440 c3         1 EOB      -0.479400
     19 PAV         -5.4480    -0.6970    -0.4190 p5         1 EOB       1.301500
     20 OAH         -6.1900    -1.9880    -0.4020 o          1 EOB      -0.898833
     21 OAG         -6.4010     0.4410    -0.5330 o          1 EOB      -0.898833
     22 OAD         -4.4580    -0.6870    -1.5310 o          1 EOB      -0.898833
     23 HAM1         5.2650    -0.3790    -1.9660 hc         1 EOB       0.026200
     24 HAM2         3.9920    -1.4750    -1.2600 hc         1 EOB       0.026200
     25 HAO          2.2430    -0.6830    -0.3670 hn         1 EOB       0.250000
     26 HAL         -0.0040    -0.7090    -0.0070 ha         1 EOB       0.177000
     27 HAJ          2.0710     3.0600    -0.4350 ha         1 EOB       0.102000
     28 HAI         -0.0200     4.2630     0.0380 ha         1 EOB       0.039000
     29 HAK         -2.1030     3.0380     0.4900 ha         1 EOB       0.102000
     30 HAP         -2.2500    -0.7040     0.3540 hn         1 EOB       0.250000
     31 HAN1        -3.9950    -1.5230     1.2320 hc         1 EOB       0.026200
     32 HAN2        -5.2750    -0.4480     1.9570 hc         1 EOB       0.026200
@<TRIPOS>BOND
     1     1     2 1   
     2     2     3 1   
     3     2     4 1   
     4     2     5 1   
     5     5     6 1   
     6     5    23 1   
     7     5    24 1   
     8     6     7 2   
     9     6     8 1   
    10     8     9 1   
    11     8    25 1   
    12     9    10 ar  
    13     9    11 ar  
    14    10    14 ar  
    15    10    26 1   
    16    11    12 ar  
    17    11    27 1   
    18    12    13 ar  
    19    12    28 1   
    20    13    14 ar  
    21    13    29 1   
    22    14    15 1   
    23    15    16 1   
    24    15    30 1   
    25    16    17 2   
    26    16    18 1   
    27    18    19 1   
    28    18    31 1   
    29    18    32 1   
    30    19    20 1   
    31    19    21 1   
    32    19    22 1   
@<TRIPOS>SUBSTRUCTURE
     1 EOB         1 TEMP              0 ****  ****    0 ROOT
