@<TRIPOS>MOLECULE
EOC
   61    62     1     0     0
SMALL
bcc


@<TRIPOS>ATOM
      1 C12        -23.8580    25.0420     3.9210 c          1 EOC       0.674300
      2 O21        -22.6670    24.9610     3.6410 o          1 EOC      -0.621100
      3 C13        -24.6520    26.2780     3.7580 ce         1 EOC      -0.247200
      4 C14        -24.0940    27.3890     3.2700 cf         1 EOC      -0.022200
      5 C15        -24.7490    28.6740     3.0440 ca         1 EOC      -0.077800
      6 C20        -26.1170    28.8780     3.2510 ca         1 EOC      -0.104000
      7 C19        -26.6870    30.1180     3.0200 ca         1 EOC      -0.132500
      8 C18        -25.9030    31.1800     2.5790 ca         1 EOC      -0.112000
      9 C17        -24.5450    30.9910     2.3690 ca         1 EOC      -0.132500
     10 C16        -23.9750    29.7480     2.5980 ca         1 EOC      -0.104000
     11 N11        -24.5440    23.9940     4.4150 ns         1 EOC      -0.553900
     12 C10        -23.9390    22.6960     4.5530 c3         1 EOC       0.042700
     13 C09        -23.5990    22.1440     3.1670 c          1 EOC       0.656100
     14 O26        -24.3650    22.2690     2.2280 o          1 EOC      -0.599100
     15 C22        -24.8780    21.7120     5.2610 c3         1 EOC      -0.084400
     16 C23        -24.8910    21.8050     6.7890 c3         1 EOC      -0.060700
     17 C24        -25.3730    23.1520     7.3170 c3         1 EOC      -0.091100
     18 C25        -25.7480    20.6760     7.3560 c3         1 EOC      -0.091100
     19 C28        -21.4120    24.9430     0.0210 c6         1 EOC      -0.094400
     20 C05        -21.8940    20.8890     1.9000 c3         1 EOC      -0.018300
     21 C27        -21.5030    23.4390     0.2030 c6         1 EOC      -0.074400
     22 C02        -19.1790    23.5590     1.2050 c          1 EOC       0.713500
     23 C04        -20.5400    21.4820     1.5240 c3         1 EOC      -0.071400
     24 C06        -21.8600    19.3840     2.0620 c          1 EOC       0.561900
     25 C03        -20.5870    22.9980     1.3410 c6         1 EOC      -0.144700
     26 C29        -20.0030    25.3230    -0.3860 c6         1 EOC       0.116000
     27 N08        -22.4340    21.4700     3.1060 ns         1 EOC      -0.564900
     28 N30        -19.0200    24.6610     0.4530 ns         1 EOC      -0.574900
     29 H2         -25.6980    26.2440     4.0460 ha         1 EOC       0.129000
     30 H18        -23.0400    27.3500     3.0090 ha         1 EOC       0.145000
     31 H5         -26.7460    28.0640     3.5890 ha         1 EOC       0.132000
     32 H22        -27.7480    30.2600     3.1830 ha         1 EOC       0.134000
     33 H21        -26.3520    32.1480     2.3980 ha         1 EOC       0.133000
     34 H4         -23.9280    31.8120     2.0260 ha         1 EOC       0.134000
     35 H20        -22.9130    29.6060     2.4310 ha         1 EOC       0.132000
     36 H32        -25.5380    24.0780     4.5590 hn         1 EOC       0.325500
     37 H1         -23.0210    22.7880     5.1420 h1         1 EOC       0.074700
     38 H6         -25.8930    21.8290     4.8660 hc         1 EOC       0.056200
     39 H7         -24.5670    20.6980     4.9940 hc         1 EOC       0.056200
     40 H23        -23.8620    21.6510     7.1330 hc         1 EOC       0.047700
     41 H10        -26.3750    23.3820     6.9460 hc         1 EOC       0.036200
     42 H8         -25.4250    23.1370     8.4080 hc         1 EOC       0.036200
     43 H9         -24.7130    23.9720     7.0350 hc         1 EOC       0.036200
     44 H24        -25.7110    20.6680     8.4470 hc         1 EOC       0.036200
     45 H25        -26.7940    20.7930     7.0620 hc         1 EOC       0.036200
     46 H26        -25.4110    19.7000     7.0030 hc         1 EOC       0.036200
     47 H11        -21.6870    25.4380     0.9570 hc         1 EOC       0.058700
     48 H12        -22.1070    25.2910    -0.7450 hc         1 EOC       0.058700
     49 H16        -22.6250    21.0690     1.1040 h1         1 EOC       0.100700
     50 H27        -22.5310    23.1510     0.4220 hc         1 EOC       0.052700
     51 H28        -21.2190    22.9310    -0.7260 hc         1 EOC       0.052700
     52 H14        -20.1980    21.0070     0.6020 hc         1 EOC       0.071200
     53 H15        -19.8130    21.2270     2.2970 hc         1 EOC       0.071200
     54 H17        -22.7470    18.9730     2.5790 h4         1 EOC      -0.007800
     55 H13        -20.9800    23.4460     2.2630 hc         1 EOC       0.092700
     56 H29        -19.8360    25.0500    -1.4320 h1         1 EOC       0.035200
     57 H30        -19.8520    26.4000    -0.3080 h1         1 EOC       0.035200
     58 H31        -21.8330    21.4850     3.9150 hn         1 EOC       0.320500
     59 H33        -18.0720    25.0010     0.3850 hn         1 EOC       0.311500
     60 O07        -20.9760    18.6700     1.6680 o          1 EOC      -0.500100
     61 O01        -18.2290    23.0560     1.7980 o          1 EOC      -0.658500
@<TRIPOS>BOND
     1     1     2 2   
     2     1     3 1   
     3     1    11 1   
     4     3     4 2   
     5     3    29 1   
     6     4     5 1   
     7     4    30 1   
     8     5     6 ar  
     9     5    10 ar  
    10     6     7 ar  
    11     6    31 1   
    12     7     8 ar  
    13     7    32 1   
    14     8     9 ar  
    15     8    33 1   
    16     9    10 ar  
    17     9    34 1   
    18    10    35 1   
    19    11    12 1   
    20    11    36 1   
    21    12    13 1   
    22    12    15 1   
    23    12    37 1   
    24    13    14 2   
    25    13    27 1   
    26    15    16 1   
    27    15    38 1   
    28    15    39 1   
    29    16    17 1   
    30    16    18 1   
    31    16    40 1   
    32    17    41 1   
    33    17    42 1   
    34    17    43 1   
    35    18    44 1   
    36    18    45 1   
    37    18    46 1   
    38    19    21 1   
    39    19    26 1   
    40    19    47 1   
    41    19    48 1   
    42    20    23 1   
    43    20    24 1   
    44    20    27 1   
    45    20    49 1   
    46    21    25 1   
    47    21    50 1   
    48    21    51 1   
    49    22    25 1   
    50    22    28 1   
    51    22    61 2   
    52    23    25 1   
    53    23    52 1   
    54    23    53 1   
    55    24    54 1   
    56    24    60 2   
    57    25    55 1   
    58    26    28 1   
    59    26    56 1   
    60    26    57 1   
    61    27    58 1   
    62    28    59 1   
@<TRIPOS>SUBSTRUCTURE
     1 EOC         1 TEMP              0 ****  ****    0 ROOT
