@<TRIPOS>MOLECULE
EOC
   61    62     1     0     0
SMALL
No Charge or Current Charge


@<TRIPOS>ATOM
      1 C12        -24.0560    25.5100     4.1580 c          1 EOC       0.607300
      2 O21        -22.8820    25.6710     4.4550 o          1 EOC      -0.621100
      3 C13        -24.9880    26.6380     3.8970 ce         1 EOC      -0.297200
      4 C14        -24.6410    27.9570     3.9620 cf         1 EOC      -0.072200
      5 C15        -25.4690    29.1590     3.7270 ca         1 EOC      -0.077800
      6 C20        -26.8350    29.0660     3.3800 ca         1 EOC      -0.086000
      7 C19        -27.5970    30.2280     3.1640 ca         1 EOC      -0.114500
      8 C18        -27.0040    31.4940     3.2910 ca         1 EOC      -0.094000
      9 C17        -25.6470    31.5980     3.6360 ca         1 EOC      -0.114500
     10 C16        -24.8850    30.4370     3.8530 ca         1 EOC      -0.086000
     11 N11        -24.6270    24.2670     4.0340 ns         1 EOC      -0.486900
     12 C10        -23.9150    22.9840     4.2370 c3         1 EOC       0.042700
     13 C09        -23.6070    22.3210     2.8610 c          1 EOC       0.589100
     14 O26        -24.1850    22.6210     1.8230 o          1 EOC      -0.599100
     15 C22        -24.7300    22.0300     5.1570 c3         1 EOC      -0.084400
     16 C23        -24.5830    22.2710     6.6870 c3         1 EOC      -0.060700
     17 C24        -25.0870    23.6600     7.1490 c3         1 EOC      -0.091100
     18 C25        -25.2850    21.1490     7.4870 c3         1 EOC      -0.091100
     19 C28        -20.4150    24.3280    -0.6490 c6         1 EOC      -0.094400
     20 C05        -22.0770    20.6470     1.7050 c3         1 EOC      -0.018300
     21 C27        -21.0480    23.0340    -0.1080 c6         1 EOC      -0.074400
     22 C02        -18.7850    22.8120     1.1770 c          1 EOC       0.571000
     23 C04        -20.5900    21.0320     1.4600 c3         1 EOC      -0.071400
     24 C06        -22.2930    19.1200     1.8720 c          1 EOC       0.561900
     25 C03        -20.3160    22.5490     1.1780 c6         1 EOC      -0.144700
     26 C29        -18.9370    24.0810    -1.0100 c6         1 EOC       0.116000
     27 N08        -22.6190    21.3540     2.8910 ns         1 EOC      -0.497900
     28 N30        -18.2160    23.3700     0.0550 ns         1 EOC      -0.507900
     29 H2         -26.0060    26.3600     3.6420 ha         1 EOC       0.179000
     30 H18        -23.6030    28.1820     4.2240 ha         1 EOC       0.195000
     31 H5         -27.3180    28.0990     3.2750 ha         1 EOC       0.114000
     32 H22        -28.6480    30.1450     2.8970 ha         1 EOC       0.116000
     33 H21        -27.5950    32.3920     3.1240 ha         1 EOC       0.115000
     34 H4         -25.1850    32.5770     3.7360 ha         1 EOC       0.116000
     35 H20        -23.8340    30.5350     4.1190 ha         1 EOC       0.114000
     36 H32        -25.5970    24.2380     3.7470 hn         1 EOC       0.325500
     37 H1         -22.9430    23.1750     4.7100 h1         1 EOC       0.074700
     38 H6         -25.7900    22.0630     4.8730 hc         1 EOC       0.056200
     39 H7         -24.4030    21.0010     4.9590 hc         1 EOC       0.056200
     40 H23        -23.5150    22.2150     6.9310 hc         1 EOC       0.047700
     41 H10        -26.1200    23.8320     6.8210 hc         1 EOC       0.036200
     42 H8         -25.0590    23.7380     8.2420 hc         1 EOC       0.036200
     43 H9         -24.4560    24.4610     6.7510 hc         1 EOC       0.036200
     44 H24        -25.1300    21.2830     8.5640 hc         1 EOC       0.036200
     45 H25        -26.3650    21.1490     7.2930 hc         1 EOC       0.036200
     46 H26        -24.8870    20.1660     7.2110 hc         1 EOC       0.036200
     47 H11        -20.4870    25.1230     0.1060 hc         1 EOC       0.058700
     48 H12        -20.9610    24.6820    -1.5340 hc         1 EOC       0.058700
     49 H16        -22.6620    20.9240     0.8190 h1         1 EOC       0.100700
     50 H27        -22.1140    23.1990     0.0980 hc         1 EOC       0.052700
     51 H28        -20.9970    22.2610    -0.8870 hc         1 EOC       0.052700
     52 H14        -20.2070    20.4360     0.6220 hc         1 EOC       0.071200
     53 H15        -20.0130    20.7140     2.3380 hc         1 EOC       0.071200
     54 H17        -23.3440    18.7780     1.7400 h4         1 EOC      -0.007800
     55 H13        -20.6960    23.0990     2.0500 hc         1 EOC       0.092700
     56 H29        -18.8790    23.4700    -1.9230 h1         1 EOC       0.035200
     57 H30        -18.4320    25.0360    -1.2100 h1         1 EOC       0.035200
     58 H31        -22.1970    21.1690     3.7960 hn         1 EOC       0.320500
     59 H33        -17.2090    23.4770     0.0910 hn         1 EOC       0.311500
     60 O07        -21.4000    18.3180     2.1290 o          1 EOC      -0.500100
     61 O01        -18.0840    22.5480     2.1410 o          1 EOC      -0.583000
@<TRIPOS>BOND
     1     1     2 2   
     2     1     3 1   
     3     1    11 1   
     4     3     4 2   
     5     3    29 1   
     6     4     5 1   
     7     4    30 1   
     8     5     6 ar  
     9     5    10 ar  
    10     6     7 ar  
    11     6    31 1   
    12     7     8 ar  
    13     7    32 1   
    14     8     9 ar  
    15     8    33 1   
    16     9    10 ar  
    17     9    34 1   
    18    10    35 1   
    19    11    12 1   
    20    11    36 1   
    21    12    13 1   
    22    12    15 1   
    23    12    37 1   
    24    13    14 2   
    25    13    27 1   
    26    15    16 1   
    27    15    38 1   
    28    15    39 1   
    29    16    17 1   
    30    16    18 1   
    31    16    40 1   
    32    17    41 1   
    33    17    42 1   
    34    17    43 1   
    35    18    44 1   
    36    18    45 1   
    37    18    46 1   
    38    19    21 1   
    39    19    26 1   
    40    19    47 1   
    41    19    48 1   
    42    20    23 1   
    43    20    24 1   
    44    20    27 1   
    45    20    49 1   
    46    21    25 1   
    47    21    50 1   
    48    21    51 1   
    49    22    25 1   
    50    22    28 1   
    51    22    61 2   
    52    23    25 1   
    53    23    52 1   
    54    23    53 1   
    55    24    54 1   
    56    24    60 2   
    57    25    55 1   
    58    26    28 1   
    59    26    56 1   
    60    26    57 1   
    61    27    58 1   
    62    28    59 1   
@<TRIPOS>SUBSTRUCTURE
     1 EOC         1 TEMP              0 ****  ****    0 ROOT
