@<TRIPOS>MOLECULE
EOD
   54    54     1     0     0
SMALL
abcg2


@<TRIPOS>ATOM
      1 O1          -9.3050     1.8790    -0.1780 o          1 EOD      -0.744000
      2 C1          -9.4540     0.6580    -0.3810 c          1 EOD       0.717000
      3 O2         -10.5380     0.0740    -0.5980 o          1 EOD      -0.744000
      4 C2          -8.2030    -0.2370    -0.3570 c3         1 EOD      -0.203400
      5 C3          -6.8670     0.4760    -0.2230 c3         1 EOD      -0.054400
      6 C4          -5.6860    -0.4870    -0.2220 c3         1 EOD      -0.079400
      7 C5          -4.3380     0.2010    -0.0510 c3         1 EOD      -0.074400
      8 C6          -3.1670    -0.7740    -0.0710 c3         1 EOD      -0.075400
      9 C7          -1.8180    -0.1190     0.2010 c3         1 EOD      -0.074400
     10 C8          -0.6570    -1.1050     0.1290 c3         1 EOD      -0.075400
     11 C9           0.6720    -0.5200     0.5870 c3         1 EOD      -0.074400
     12 C10          1.8370    -1.4900     0.4300 c3         1 EOD      -0.073400
     13 C11          3.1390    -0.9530     1.0160 c3         1 EOD      -0.068400
     14 C12          4.2890    -1.8960     0.7980 cx         1 EOD       0.095300
     15 O3           4.9430    -1.8540    -0.4670 op         1 EOD      -0.443000
     16 C13          5.6900    -1.4920     0.6910 cx         1 EOD       0.086300
     17 C14          6.1860    -0.0790     0.7990 c3         1 EOD      -0.066400
     18 C15          7.3620     0.1970    -0.1340 c3         1 EOD      -0.073400
     19 C16          7.9320     1.5990     0.0400 c3         1 EOD      -0.076400
     20 C17          9.0800     1.9040    -0.9140 c3         1 EOD      -0.074400
     21 C18          9.6650     3.2940    -0.7030 c3         1 EOD      -0.088100
     22 H21         -8.2040    -0.8530    -1.2640 hc         1 EOD       0.014700
     23 H22         -8.3160    -0.9520     0.4670 hc         1 EOD       0.014700
     24 H31         -6.8530     1.0650     0.6990 hc         1 EOD       0.037700
     25 H32         -6.7450     1.1940    -1.0390 hc         1 EOD       0.037700
     26 H41         -5.6850    -1.0610    -1.1570 hc         1 EOD       0.023700
     27 H42         -5.8180    -1.2230     0.5800 hc         1 EOD       0.023700
     28 H51         -4.3330     0.7580     0.8920 hc         1 EOD       0.034200
     29 H52         -4.2050     0.9460    -0.8440 hc         1 EOD       0.034200
     30 H61         -3.1370    -1.2820    -1.0420 hc         1 EOD       0.032200
     31 H62         -3.3380    -1.5580     0.6750 hc         1 EOD       0.032200
     32 H71         -1.8390     0.3500     1.1910 hc         1 EOD       0.035200
     33 H72         -1.6510     0.6920    -0.5160 hc         1 EOD       0.035200
     34 H81         -0.5620    -1.4750    -0.8980 hc         1 EOD       0.035700
     35 H82         -0.8910    -1.9810     0.7430 hc         1 EOD       0.035700
     36 H91          0.5880    -0.2160     1.6360 hc         1 EOD       0.035700
     37 H92          0.8900     0.3950     0.0250 hc         1 EOD       0.035700
     38 H101         1.9790    -1.7120    -0.6330 hc         1 EOD       0.043200
     39 H102         1.5880    -2.4420     0.9110 hc         1 EOD       0.043200
     40 H111         3.0180    -0.8030     2.0940 hc         1 EOD       0.049700
     41 H112         3.3600     0.0280     0.5880 hc         1 EOD       0.049700
     42 H12          4.0990    -2.9080     1.1590 h1         1 EOD       0.077700
     43 H13          6.4350    -2.2370     0.9770 h1         1 EOD       0.074700
     44 H141         6.5000     0.0810     1.8360 hc         1 EOD       0.049700
     45 H142         5.3850     0.6380     0.6060 hc         1 EOD       0.049700
     46 H151         7.0450     0.0560    -1.1720 hc         1 EOD       0.044200
     47 H152         8.1520    -0.5400     0.0480 hc         1 EOD       0.044200
     48 H161         8.2750     1.7230     1.0730 hc         1 EOD       0.036700
     49 H162         7.1360     2.3380    -0.1040 hc         1 EOD       0.036700
     50 H171         8.7290     1.8050    -1.9460 hc         1 EOD       0.037200
     51 H172         9.8650     1.1520    -0.7870 hc         1 EOD       0.037200
     52 H181         8.9060     4.0660    -0.8440 hc         1 EOD       0.030367
     53 H182        10.0600     3.4040     0.3090 hc         1 EOD       0.030367
     54 H183        10.4780     3.5000    -1.4000 hc         1 EOD       0.030367
@<TRIPOS>BOND
     1     1     2 1   
     2     2     3 1   
     3     2     4 1   
     4     4     5 1   
     5     4    22 1   
     6     4    23 1   
     7     5     6 1   
     8     5    24 1   
     9     5    25 1   
    10     6     7 1   
    11     6    26 1   
    12     6    27 1   
    13     7     8 1   
    14     7    28 1   
    15     7    29 1   
    16     8     9 1   
    17     8    30 1   
    18     8    31 1   
    19     9    10 1   
    20     9    32 1   
    21     9    33 1   
    22    10    11 1   
    23    10    34 1   
    24    10    35 1   
    25    11    12 1   
    26    11    36 1   
    27    11    37 1   
    28    12    13 1   
    29    12    38 1   
    30    12    39 1   
    31    13    14 1   
    32    13    40 1   
    33    13    41 1   
    34    14    15 1   
    35    14    16 1   
    36    14    42 1   
    37    15    16 1   
    38    16    17 1   
    39    16    43 1   
    40    17    18 1   
    41    17    44 1   
    42    17    45 1   
    43    18    19 1   
    44    18    46 1   
    45    18    47 1   
    46    19    20 1   
    47    19    48 1   
    48    19    49 1   
    49    20    21 1   
    50    20    50 1   
    51    20    51 1   
    52    21    52 1   
    53    21    53 1   
    54    21    54 1   
@<TRIPOS>SUBSTRUCTURE
     1 EOD         1 TEMP              0 ****  ****    0 ROOT
