@<TRIPOS>MOLECULE
EOD
   54    54     1     0     0
SMALL
No Charge or Current Charge


@<TRIPOS>ATOM
      1 O1         -10.0190     1.1890     0.8050 o          1 EOD      -0.744000
      2 C1          -9.5470     0.8110    -0.2570 c          1 EOD       0.717000
      3 O2          -9.8770     1.2640    -1.3420 o          1 EOD      -0.744000
      4 C2          -8.4340    -0.2520    -0.2200 c3         1 EOD      -0.203400
      5 C3          -7.0480     0.4290    -0.1050 c3         1 EOD      -0.054400
      6 C4          -5.8770    -0.5790    -0.0620 c3         1 EOD      -0.079400
      7 C5          -4.4960     0.1030     0.0530 c3         1 EOD      -0.074400
      8 C6          -3.3260    -0.9040     0.0950 c3         1 EOD      -0.075400
      9 C7          -1.9450    -0.2230     0.2110 c3         1 EOD      -0.074400
     10 C8          -0.7750    -1.2300     0.2530 c3         1 EOD      -0.075400
     11 C9           0.6060    -0.5480     0.3680 c3         1 EOD      -0.074400
     12 C10          1.7760    -1.5560     0.4110 c3         1 EOD      -0.073400
     13 C11          3.1570    -0.8750     0.5260 c3         1 EOD      -0.068400
     14 C12          4.3090    -1.8770     0.5670 cx         1 EOD       0.095300
     15 O3           5.0690    -2.0480    -0.6530 op         1 EOD      -0.443000
     16 C13          5.7490    -1.4440     0.4720 cx         1 EOD       0.086300
     17 C14          6.1450     0.0250     0.3290 c3         1 EOD      -0.066400
     18 C15          7.6470     0.2110     0.0220 c3         1 EOD      -0.073400
     19 C16          8.0550     1.6940    -0.1250 c3         1 EOD      -0.076400
     20 C17          9.5570     1.8800    -0.4320 c3         1 EOD      -0.074400
     21 C18          9.9650     3.3580    -0.5780 c3         1 EOD      -0.088100
     22 H21         -8.4130    -0.8180    -1.1600 hc         1 EOD       0.014700
     23 H22         -8.5340    -0.8820     0.6720 hc         1 EOD       0.014700
     24 H31         -7.0240     1.0460     0.8030 hc         1 EOD       0.037700
     25 H32         -6.9080     1.1080    -0.9550 hc         1 EOD       0.037700
     26 H41         -5.8990    -1.1950    -0.9700 hc         1 EOD       0.023700
     27 H42         -6.0150    -1.2570     0.7890 hc         1 EOD       0.023700
     28 H51         -4.4730     0.7190     0.9610 hc         1 EOD       0.034200
     29 H52         -4.3560     0.7810    -0.7980 hc         1 EOD       0.034200
     30 H61         -3.3480    -1.5210    -0.8120 hc         1 EOD       0.032200
     31 H62         -3.4650    -1.5820     0.9470 hc         1 EOD       0.032200
     32 H71         -1.9220     0.3940     1.1180 hc         1 EOD       0.035200
     33 H72         -1.8050     0.4550    -0.6410 hc         1 EOD       0.035200
     34 H81         -0.7980    -1.8460    -0.6540 hc         1 EOD       0.035700
     35 H82         -0.9140    -1.9080     1.1050 hc         1 EOD       0.035700
     36 H91          0.6280     0.0680     1.2760 hc         1 EOD       0.035700
     37 H92          0.7450     0.1300    -0.4830 hc         1 EOD       0.035700
     38 H101         1.7550    -2.1720    -0.4970 hc         1 EOD       0.043200
     39 H102         1.6360    -2.2340     1.2620 hc         1 EOD       0.043200
     40 H111         3.1790    -0.2650     1.4380 hc         1 EOD       0.049700
     41 H112         3.2820    -0.1860    -0.3180 hc         1 EOD       0.049700
     42 H12          4.1010    -2.7920     1.1230 h1         1 EOD       0.077700
     43 H13          6.4910    -2.0720     0.9650 h1         1 EOD       0.074700
     44 H141         5.9030     0.5540     1.2590 hc         1 EOD       0.049700
     45 H142         5.5610     0.5010    -0.4670 hc         1 EOD       0.049700
     46 H151         7.8930    -0.3240    -0.9040 hc         1 EOD       0.044200
     47 H152         8.2390    -0.2480     0.8240 hc         1 EOD       0.044200
     48 H161         7.8090     2.2290     0.8010 hc         1 EOD       0.036700
     49 H162         7.4650     2.1530    -0.9270 hc         1 EOD       0.036700
     50 H171         9.8080     1.3480    -1.3580 hc         1 EOD       0.037200
     51 H172        10.1520     1.4240     0.3700 hc         1 EOD       0.037200
     52 H181         9.4120     3.8340    -1.3970 hc         1 EOD       0.030367
     53 H182         9.7590     3.9110     0.3460 hc         1 EOD       0.030367
     54 H183        11.0370     3.4400    -0.7950 hc         1 EOD       0.030367
@<TRIPOS>BOND
     1     1     2 1   
     2     2     3 1   
     3     2     4 1   
     4     4     5 1   
     5     4    22 1   
     6     4    23 1   
     7     5     6 1   
     8     5    24 1   
     9     5    25 1   
    10     6     7 1   
    11     6    26 1   
    12     6    27 1   
    13     7     8 1   
    14     7    28 1   
    15     7    29 1   
    16     8     9 1   
    17     8    30 1   
    18     8    31 1   
    19     9    10 1   
    20     9    32 1   
    21     9    33 1   
    22    10    11 1   
    23    10    34 1   
    24    10    35 1   
    25    11    12 1   
    26    11    36 1   
    27    11    37 1   
    28    12    13 1   
    29    12    38 1   
    30    12    39 1   
    31    13    14 1   
    32    13    40 1   
    33    13    41 1   
    34    14    15 1   
    35    14    16 1   
    36    14    42 1   
    37    15    16 1   
    38    16    17 1   
    39    16    43 1   
    40    17    18 1   
    41    17    44 1   
    42    17    45 1   
    43    18    19 1   
    44    18    46 1   
    45    18    47 1   
    46    19    20 1   
    47    19    48 1   
    48    19    49 1   
    49    20    21 1   
    50    20    50 1   
    51    20    51 1   
    52    21    52 1   
    53    21    53 1   
    54    21    54 1   
@<TRIPOS>SUBSTRUCTURE
     1 EOD         1 TEMP              0 ****  ****    0 ROOT
