@<TRIPOS>MOLECULE
EOE
   19    19     1     0     0
SMALL
No Charge or Current Charge


@<TRIPOS>ATOM
      1 C02          2.0000    -0.0090    -0.2950 c          1 EOE       0.726000
      2 C03          0.8370     0.9350     0.0470 c3         1 EOE      -0.202400
      3 C04         -0.5150     0.2430    -0.2350 c5         1 EOE       0.167500
      4 C05         -1.7260     1.2030    -0.1950 c5         1 EOE      -0.121400
      5 C06         -2.9090     0.1980    -0.1860 c5         1 EOE      -0.115400
      6 C07         -2.3020    -1.0670     0.4920 c5         1 EOE       0.134800
      7 N08         -0.9010    -0.7140     0.8160 n7         1 EOE      -0.799400
      8 O01          2.3760    -0.0550    -1.4580 o          1 EOE      -0.738500
      9 H2           0.8570     1.2200     1.1070 hc         1 EOE       0.016200
     10 H3           0.8640     1.7980    -0.6300 hc         1 EOE       0.016200
     11 H4          -0.4570    -0.2530    -1.2180 h1         1 EOE       0.078700
     12 H5          -1.7220     1.8240     0.7090 hc         1 EOE       0.032200
     13 H6          -1.7580     1.8790    -1.0580 hc         1 EOE       0.032200
     14 H7          -3.7740     0.5890     0.3610 hc         1 EOE       0.024200
     15 H8          -3.2460    -0.0310    -1.2040 hc         1 EOE       0.024200
     16 H9          -2.8550    -1.3600     1.3950 h1         1 EOE       0.034200
     17 H10         -2.3280    -1.9170    -0.2050 h1         1 EOE       0.034200
     18 H11         -0.8970    -0.2020     1.7040 hn         1 EOE       0.392000
     19 O1           2.5050    -0.6680     0.6020 o          1 EOE      -0.738500
@<TRIPOS>BOND
     1     1     2 1   
     2     1     8 1   
     3     1    19 1   
     4     2     3 1   
     5     2     9 1   
     6     2    10 1   
     7     3     4 1   
     8     3     7 1   
     9     3    11 1   
    10     4     5 1   
    11     4    12 1   
    12     4    13 1   
    13     5     6 1   
    14     5    14 1   
    15     5    15 1   
    16     6     7 1   
    17     6    16 1   
    18     6    17 1   
    19     7    18 1   
@<TRIPOS>SUBSTRUCTURE
     1 EOE         1 TEMP              0 ****  ****    0 ROOT
