@<TRIPOS>MOLECULE
EOE
   19    19     1     0     0
SMALL
bcc


@<TRIPOS>ATOM
      1 C02          2.0000    -0.0320    -0.0600 c          1 EOE       0.936600
      2 C03          0.7910     0.9080     0.0830 c3         1 EOE      -0.202400
      3 C04         -0.5280     0.2780    -0.3190 c5         1 EOE       0.167500
      4 C05         -1.7380     1.2230    -0.2380 c5         1 EOE      -0.121400
      5 C06         -2.9380     0.2820    -0.0420 c5         1 EOE      -0.115400
      6 C07         -2.2920    -1.0910     0.2720 c5         1 EOE       0.134800
      7 N08         -0.8750    -0.8620     0.5260 n7         1 EOE      -0.744200
      8 O01          2.1070    -0.6420    -1.1440 o          1 EOE      -0.843800
      9 H2           0.7150     1.2890     1.1070 hc         1 EOE       0.016200
     10 H3           0.9600     1.7830    -0.5550 hc         1 EOE       0.016200
     11 H4          -0.4390    -0.0900    -1.3470 h1         1 EOE       0.078700
     12 H5          -1.6250     1.8870     0.6240 hc         1 EOE       0.032200
     13 H6          -1.8300     1.8560    -1.1220 hc         1 EOE       0.032200
     14 H7          -3.5790     0.6190     0.7740 hc         1 EOE       0.024200
     15 H8          -3.5650     0.2270    -0.9330 hc         1 EOE       0.024200
     16 H9          -2.7560    -1.5980     1.1190 h1         1 EOE       0.034200
     17 H10         -2.3950    -1.7540    -0.5910 h1         1 EOE       0.034200
     18 H11         -0.7610    -0.5780     1.4940 hn         1 EOE       0.336800
     19 O1           2.7950    -0.0910     0.9000 o          1 EOE      -0.843800
@<TRIPOS>BOND
     1     1     2 1   
     2     1     8 1   
     3     1    19 1   
     4     2     3 1   
     5     2     9 1   
     6     2    10 1   
     7     3     4 1   
     8     3     7 1   
     9     3    11 1   
    10     4     5 1   
    11     4    12 1   
    12     4    13 1   
    13     5     6 1   
    14     5    14 1   
    15     5    15 1   
    16     6     7 1   
    17     6    16 1   
    18     6    17 1   
    19     7    18 1   
@<TRIPOS>SUBSTRUCTURE
     1 EOE         1 TEMP              0 ****  ****    0 ROOT
