@<TRIPOS>MOLECULE
EOF
   58    59     1     0     0
SMALL
bcc


@<TRIPOS>ATOM
      1 C09        -24.0560   -15.2530     4.0330 c          1 EOF       0.674300
      2 O18        -22.8350   -15.2100     3.9480 o          1 EOF      -0.618100
      3 C10        -24.9290   -14.0750     3.8450 ce         1 EOF      -0.248200
      4 C11        -24.4110   -12.8780     3.5560 cf         1 EOF      -0.021200
      5 C12        -25.1430   -11.6320     3.3450 ca         1 EOF      -0.078800
      6 C13        -26.5390   -11.5500     3.3920 ca         1 EOF      -0.103500
      7 C14        -27.1800   -10.3410     3.1840 ca         1 EOF      -0.133000
      8 C15        -26.4430    -9.1900     2.9240 ca         1 EOF      -0.112000
      9 C16        -25.0580    -9.2570     2.8730 ca         1 EOF      -0.133000
     10 C17        -24.4160   -10.4690     3.0820 ca         1 EOF      -0.103500
     11 N08        -24.7090   -16.3960     4.3230 ns         1 EOF      -0.553900
     12 C03        -24.0090   -17.6440     4.4560 c3         1 EOF       0.040700
     13 C02        -23.4030   -18.0520     3.1120 c          1 EOF       0.657100
     14 O01        -24.0070   -17.8870     2.0670 o          1 EOF      -0.600100
     15 C04        -24.9620   -18.7450     4.9240 c3         1 EOF      -0.086400
     16 C05        -25.5910   -18.5160     6.3020 c3         1 EOF      -0.058700
     17 C06        -26.5410   -19.6680     6.6160 c3         1 EOF      -0.091600
     18 C07        -24.5390   -18.3760     7.3970 c3         1 EOF      -0.091600
     19 C28        -19.1020   -16.0370     1.5080 c          1 EOF       0.707500
     20 N27        -19.3110   -15.0890     0.5820 ns         1 EOF      -0.580900
     21 C26        -20.6590   -15.0510     0.0540 c5         1 EOF       0.101000
     22 C25        -21.1850   -16.4430     0.4080 c5         1 EOF      -0.092400
     23 C24        -20.3950   -16.8230     1.6600 c5         1 EOF      -0.160700
     24 C23        -20.1460   -18.3080     1.8670 c3         1 EOF      -0.064400
     25 C20        -21.4350   -19.0960     2.0600 c3         1 EOF      -0.018300
     26 N19        -22.2000   -18.6510     3.2000 ns         1 EOF      -0.564900
     27 C21        -21.2190   -20.5890     2.1840 c          1 EOF       0.560900
     28 O22        -20.1890   -21.1570     1.9310 o          1 EOF      -0.498100
     29 H1         -25.9980   -14.2200     3.9530 ha         1 EOF       0.129000
     30 H21        -23.3310   -12.8020     3.4670 ha         1 EOF       0.145000
     31 H3         -27.1330   -12.4330     3.5900 ha         1 EOF       0.132000
     32 H23        -28.2610   -10.2940     3.2230 ha         1 EOF       0.134000
     33 H4         -26.9490    -8.2470     2.7590 ha         1 EOF       0.133000
     34 H24        -24.4770    -8.3680     2.6690 ha         1 EOF       0.134000
     35 H5         -23.3340   -10.5170     3.0410 ha         1 EOF       0.132000
     36 H29        -25.7160   -16.4120     4.2800 hn         1 EOF       0.324500
     37 H11        -23.2080   -17.5240     5.1910 h1         1 EOF       0.076700
     38 H12        -25.7500   -18.8660     4.1750 hc         1 EOF       0.056200
     39 H13        -24.4060   -19.6880     4.9440 hc         1 EOF       0.056200
     40 H14        -26.1830   -17.5950     6.2720 hc         1 EOF       0.046700
     41 H15        -27.0320   -19.5210     7.5780 hc         1 EOF       0.036367
     42 H16        -27.3190   -19.7660     5.8570 hc         1 EOF       0.036367
     43 H17        -26.0010   -20.6170     6.6630 hc         1 EOF       0.036367
     44 H18        -25.0110   -18.2970     8.3770 hc         1 EOF       0.036367
     45 H19        -23.8800   -19.2470     7.4150 hc         1 EOF       0.036367
     46 H20        -23.9160   -17.4900     7.2690 hc         1 EOF       0.036367
     47 H10        -20.6560   -14.8620    -1.0180 h1         1 EOF       0.044700
     48 H9         -21.2480   -14.2630     0.5340 h1         1 EOF       0.044700
     49 H27        -22.2620   -16.4500     0.5650 hc         1 EOF       0.062700
     50 H28        -20.9600   -17.1410    -0.4030 hc         1 EOF       0.062700
     51 H8         -20.9030   -16.4100     2.5410 hc         1 EOF       0.097700
     52 H25        -19.6170   -18.7150     1.0030 hc         1 EOF       0.069700
     53 H26        -19.4940   -18.4520     2.7330 hc         1 EOF       0.069700
     54 H6         -22.0810   -18.9740     1.1830 h1         1 EOF       0.100700
     55 H30        -21.7460   -18.6820     4.1010 hn         1 EOF       0.319500
     56 H7         -22.1130   -21.1390     2.5300 h4         1 EOF      -0.006800
     57 H31        -18.6290   -14.3730     0.3840 hn         1 EOF       0.325500
     58 O29        -18.0650   -16.2250     2.1260 o          1 EOF      -0.635500
@<TRIPOS>BOND
     1     1     2 2   
     2     1     3 1   
     3     1    11 1   
     4     3     4 2   
     5     3    29 1   
     6     4     5 1   
     7     4    30 1   
     8     5     6 ar  
     9     5    10 ar  
    10     6     7 ar  
    11     6    31 1   
    12     7     8 ar  
    13     7    32 1   
    14     8     9 ar  
    15     8    33 1   
    16     9    10 ar  
    17     9    34 1   
    18    10    35 1   
    19    11    12 1   
    20    11    36 1   
    21    12    13 1   
    22    12    15 1   
    23    12    37 1   
    24    13    14 2   
    25    13    26 1   
    26    15    16 1   
    27    15    38 1   
    28    15    39 1   
    29    16    17 1   
    30    16    18 1   
    31    16    40 1   
    32    17    41 1   
    33    17    42 1   
    34    17    43 1   
    35    18    44 1   
    36    18    45 1   
    37    18    46 1   
    38    19    20 1   
    39    19    23 1   
    40    19    58 2   
    41    20    21 1   
    42    20    57 1   
    43    21    22 1   
    44    21    47 1   
    45    21    48 1   
    46    22    23 1   
    47    22    49 1   
    48    22    50 1   
    49    23    24 1   
    50    23    51 1   
    51    24    25 1   
    52    24    52 1   
    53    24    53 1   
    54    25    26 1   
    55    25    27 1   
    56    25    54 1   
    57    26    55 1   
    58    27    28 2   
    59    27    56 1   
@<TRIPOS>SUBSTRUCTURE
     1 EOF         1 TEMP              0 ****  ****    0 ROOT
