@<TRIPOS>MOLECULE
EOF
   58    59     1     0     0
SMALL
No Charge or Current Charge


@<TRIPOS>ATOM
      1 C09        -24.3690   -14.8230     4.4460 c          1 EOF       0.607300
      2 O18        -23.6030   -14.6880     5.3880 o          1 EOF      -0.618100
      3 C10        -25.2290   -13.7230     3.9380 ce         1 EOF      -0.298200
      4 C11        -25.2600   -12.4620     4.4630 cf         1 EOF      -0.071200
      5 C12        -26.0660   -11.2940     4.0510 ca         1 EOF      -0.078800
      6 C13        -26.9750   -11.3590     2.9710 ca         1 EOF      -0.085500
      7 C14        -27.7270   -10.2290     2.6030 ca         1 EOF      -0.115000
      8 C15        -27.5810    -9.0230     3.3080 ca         1 EOF      -0.094000
      9 C16        -26.6810    -8.9480     4.3820 ca         1 EOF      -0.115000
     10 C17        -25.9280   -10.0770     4.7510 ca         1 EOF      -0.085500
     11 N08        -24.5040   -16.0050     3.7590 ns         1 EOF      -0.486900
     12 C03        -23.7780   -17.2620     4.0570 c3         1 EOF       0.040700
     13 C02        -23.2590   -17.9020     2.7360 c          1 EOF       0.590100
     14 O01        -23.6650   -17.5750     1.6280 o          1 EOF      -0.600100
     15 C04        -24.6860   -18.2560     4.8380 c3         1 EOF      -0.086400
     16 C05        -25.1010   -17.8170     6.2710 c3         1 EOF      -0.058700
     17 C06        -26.1830   -18.7600     6.8440 c3         1 EOF      -0.091600
     18 C07        -23.8960   -17.7260     7.2380 c3         1 EOF      -0.091600
     19 C28        -18.4550   -17.1590     1.3090 c          1 EOF       0.565000
     20 N27        -18.3900   -16.1860     0.3490 ns         1 EOF      -0.513900
     21 C26        -19.6730   -15.8420    -0.2580 c5         1 EOF       0.101000
     22 C25        -20.4580   -17.1630    -0.0320 c5         1 EOF      -0.092400
     23 C24        -19.9220   -17.6030     1.3600 c5         1 EOF      -0.160700
     24 C23        -20.1120   -19.1090     1.6960 c3         1 EOF      -0.064400
     25 C20        -21.5890   -19.5800     1.8000 c3         1 EOF      -0.018300
     26 N19        -22.2930   -18.8780     2.9010 ns         1 EOF      -0.497900
     27 C21        -21.7280   -21.1120     1.9910 c          1 EOF       0.560900
     28 O22        -20.8280   -21.8440     2.3940 o          1 EOF      -0.498100
     29 H1         -25.8650   -13.9720     3.0930 ha         1 EOF       0.179000
     30 H21        -24.6020   -12.2650     5.3130 ha         1 EOF       0.195000
     31 H3         -27.1070   -12.2780     2.4090 ha         1 EOF       0.114000
     32 H23        -28.4240   -10.2900     1.7710 ha         1 EOF       0.116000
     33 H4         -28.1640    -8.1500     3.0220 ha         1 EOF       0.115000
     34 H24        -26.5650    -8.0160     4.9300 ha         1 EOF       0.116000
     35 H5         -25.2350   -10.0020     5.5860 ha         1 EOF       0.114000
     36 H29        -25.1330   -15.9990     2.9650 hn         1 EOF       0.324500
     37 H11        -22.8870   -17.0330     4.6540 h1         1 EOF       0.076700
     38 H12        -25.5900   -18.4310     4.2420 hc         1 EOF       0.056200
     39 H13        -24.1800   -19.2260     4.9110 hc         1 EOF       0.056200
     40 H14        -25.5530   -16.8200     6.2080 hc         1 EOF       0.046700
     41 H15        -26.5070   -18.4230     7.8370 hc         1 EOF       0.036367
     42 H16        -27.0660   -18.7810     6.1930 hc         1 EOF       0.036367
     43 H17        -25.8010   -19.7840     6.9370 hc         1 EOF       0.036367
     44 H18        -24.2270   -17.4230     8.2390 hc         1 EOF       0.036367
     45 H19        -23.3910   -18.6960     7.3250 hc         1 EOF       0.036367
     46 H20        -23.1630   -16.9870     6.8960 hc         1 EOF       0.036367
     47 H10        -19.5890   -15.5900    -1.3230 h1         1 EOF       0.044700
     48 H9         -20.1470   -14.9980     0.2630 h1         1 EOF       0.044700
     49 H27        -21.5430   -17.0160    -0.0560 hc         1 EOF       0.062700
     50 H28        -20.2070   -17.8980    -0.8070 hc         1 EOF       0.062700
     51 H8         -20.4080   -16.9880     2.1260 hc         1 EOF       0.097700
     52 H25        -19.6040   -19.7130     0.9330 hc         1 EOF       0.069700
     53 H26        -19.6060   -19.3360     2.6440 hc         1 EOF       0.069700
     54 H6         -22.0930   -19.3600     0.8500 h1         1 EOF       0.100700
     55 H30        -22.0180   -19.0820     3.8570 hn         1 EOF       0.319500
     56 H7         -22.7270   -21.5280     1.7340 h4         1 EOF      -0.006800
     57 H31        -17.4850   -15.8090     0.0910 hn         1 EOF       0.325500
     58 O29        -17.4670   -17.6730     1.8080 o          1 EOF      -0.560000
@<TRIPOS>BOND
     1     1     2 2   
     2     1     3 1   
     3     1    11 1   
     4     3     4 2   
     5     3    29 1   
     6     4     5 1   
     7     4    30 1   
     8     5     6 ar  
     9     5    10 ar  
    10     6     7 ar  
    11     6    31 1   
    12     7     8 ar  
    13     7    32 1   
    14     8     9 ar  
    15     8    33 1   
    16     9    10 ar  
    17     9    34 1   
    18    10    35 1   
    19    11    12 1   
    20    11    36 1   
    21    12    13 1   
    22    12    15 1   
    23    12    37 1   
    24    13    14 2   
    25    13    26 1   
    26    15    16 1   
    27    15    38 1   
    28    15    39 1   
    29    16    17 1   
    30    16    18 1   
    31    16    40 1   
    32    17    41 1   
    33    17    42 1   
    34    17    43 1   
    35    18    44 1   
    36    18    45 1   
    37    18    46 1   
    38    19    20 1   
    39    19    23 1   
    40    19    58 2   
    41    20    21 1   
    42    20    57 1   
    43    21    22 1   
    44    21    47 1   
    45    21    48 1   
    46    22    23 1   
    47    22    49 1   
    48    22    50 1   
    49    23    24 1   
    50    23    51 1   
    51    24    25 1   
    52    24    52 1   
    53    24    53 1   
    54    25    26 1   
    55    25    27 1   
    56    25    54 1   
    57    26    55 1   
    58    27    28 2   
    59    27    56 1   
@<TRIPOS>SUBSTRUCTURE
     1 EOF         1 TEMP              0 ****  ****    0 ROOT
