@<TRIPOS>MOLECULE
EOG
   39    42     1     0     0
SMALL
No Charge or Current Charge


@<TRIPOS>ATOM
      1 C4           0.7380     2.4890    -0.2180 ca         1 EOG       0.253000
      2 C5           0.4630     1.1520     0.1770 ca         1 EOG      -0.052000
      3 C6          -0.8790     0.7290     0.3240 ca         1 EOG      -0.059000
      4 C17          0.6370    -2.0460     0.6460 ca         1 EOG      -0.113900
      5 C20         -1.3120    -4.0860     0.5360 ca         1 EOG      -0.080000
      6 C21         -1.0060    -3.3420    -0.6150 ca         1 EOG      -0.097000
      7 C22         -0.0310    -2.3310    -0.5670 ca         1 EOG       0.142000
      8 C24         -5.8200     1.6300    -0.0760 c3         1 EOG       0.093300
      9 C19         -0.6310    -3.8280     1.7360 ca         1 EOG      -0.113000
     10 C18          0.3450    -2.8180     1.7890 ca         1 EOG      -0.064000
     11 C2          -1.6680     2.8910    -0.4420 ca         1 EOG      -0.096000
     12 C3          -0.3390     3.3320    -0.5380 ca         1 EOG      -0.068000
     13 C1          -1.9580     1.5830     0.0060 ca         1 EOG      -0.129600
     14 C16          1.6680    -1.0110     0.7240 cc         1 EOG       0.397400
     15 C12          2.8110     0.8610     0.4790 cc         1 EOG      -0.175000
     16 C11          3.0090     2.2310     0.0970 cc         1 EOG       0.446300
     17 C25          4.4170     2.7580     0.1110 c3         1 EOG      -0.147400
     18 N15          2.9390    -1.2480     1.0290 nd         1 EOG      -0.351700
     19 N14          3.6590    -0.0750     0.8630 nd         1 EOG      -0.063000
     20 N10          2.0340     3.0610    -0.2850 nd         1 EOG      -0.665000
     21 N13          1.5650     0.3380     0.4460 na         1 EOG       0.032200
     22 N8          -4.3930     1.9500    -0.1620 ns         1 EOG      -0.500900
     23 O9          -3.6270    -0.0600     0.5450 o          1 EOG      -0.595100
     24 Cl3          0.3550    -1.4640    -2.0530 cl         1 EOG      -0.183000
     25 H1          -1.1090    -0.2620     0.7000 ha         1 EOG       0.156000
     26 H2          -2.0670    -4.8690     0.4940 ha         1 EOG       0.122000
     27 H3          -1.5200    -3.5530    -1.5500 ha         1 EOG       0.137000
     28 H4          -6.0490     0.7830    -0.7360 h1         1 EOG       0.042700
     29 H5          -6.0790     1.3680     0.9580 h1         1 EOG       0.042700
     30 H6          -6.4110     2.5010    -0.3880 h1         1 EOG       0.042700
     31 H7          -0.8590    -4.4110     2.6260 ha         1 EOG       0.123000
     32 H8           0.8690    -2.6280     2.7250 ha         1 EOG       0.130000
     33 H9          -2.4590     3.5910    -0.7010 ha         1 EOG       0.121000
     34 H10         -0.1380     4.3520    -0.8540 ha         1 EOG       0.140000
     35 H11          5.0490     2.1870    -0.5780 hc         1 EOG       0.068367
     36 H12          4.4570     3.8110    -0.1890 hc         1 EOG       0.068367
     37 H13          4.8480     2.6780     1.1150 hc         1 EOG       0.068367
     38 H14         -4.1230     2.8740    -0.4750 hn         1 EOG       0.318500
     39 C7          -3.3790     1.0740     0.1580 c          1 EOG       0.608700
@<TRIPOS>BOND
     1     1     2 ar  
     2     1    12 ar  
     3     1    20 1   
     4     2     3 ar  
     5     2    21 1   
     6     3    13 ar  
     7     3    25 1   
     8     4     7 ar  
     9     4    10 ar  
    10     4    14 1   
    11     5     6 ar  
    12     5     9 ar  
    13     5    26 1   
    14     6     7 ar  
    15     6    27 1   
    16     7    24 1   
    17     8    22 1   
    18     8    28 1   
    19     8    29 1   
    20     8    30 1   
    21     9    10 ar  
    22     9    31 1   
    23    10    32 1   
    24    11    12 ar  
    25    11    13 ar  
    26    11    33 1   
    27    12    34 1   
    28    13    39 1   
    29    14    18 2   
    30    14    21 1   
    31    15    16 1   
    32    15    19 2   
    33    15    21 1   
    34    16    17 1   
    35    16    20 2   
    36    17    35 1   
    37    17    36 1   
    38    17    37 1   
    39    18    19 1   
    40    22    38 1   
    41    22    39 1   
    42    23    39 2   
@<TRIPOS>SUBSTRUCTURE
     1 EOG         1 TEMP              0 ****  ****    0 ROOT
