@<TRIPOS>MOLECULE
EOG
   39    42     1     0     0
SMALL
abcg2


@<TRIPOS>ATOM
      1 C4           0.7180     2.5000    -0.1970 ca         1 EOG       0.253000
      2 C5           0.4040     1.1500     0.0440 ca         1 EOG      -0.052000
      3 C6          -0.9130     0.7110     0.0240 ca         1 EOG      -0.059000
      4 C17          0.6060    -2.0300     0.6300 ca         1 EOG      -0.113900
      5 C20         -1.3160    -4.0410     0.7260 ca         1 EOG      -0.080000
      6 C21         -0.9740    -3.4770    -0.4950 ca         1 EOG      -0.097000
      7 C22         -0.0110    -2.4840    -0.5340 ca         1 EOG       0.142000
      8 C24         -5.7000     1.5510     0.0400 c3         1 EOG       0.093300
      9 C19         -0.7010    -3.6160     1.8940 ca         1 EOG      -0.113000
     10 C18          0.2570    -2.6150     1.8440 ca         1 EOG      -0.064000
     11 C2          -1.6350     2.9470    -0.5000 ca         1 EOG      -0.096000
     12 C3          -0.3290     3.3810    -0.4800 ca         1 EOG      -0.068000
     13 C1          -1.9360     1.6080    -0.2340 ca         1 EOG      -0.129600
     14 C16          1.6500    -1.0010     0.5920 cc         1 EOG       0.397400
     15 C12          2.7560     0.8390     0.3900 cc         1 EOG      -0.175000
     16 C11          2.9840     2.2330     0.1290 cc         1 EOG       0.446300
     17 C25          4.3770     2.7530     0.1970 c3         1 EOG      -0.147400
     18 N15          2.9150    -1.2400     0.8280 nd         1 EOG      -0.351700
     19 N14          3.6090    -0.1020     0.7020 nd         1 EOG      -0.063000
     20 N10          1.9980     3.0080    -0.1590 nd         1 EOG      -0.665000
     21 N13          1.4930     0.3250     0.3150 na         1 EOG       0.032200
     22 N8          -4.3100     1.9440     0.0120 ns         1 EOG      -0.500900
     23 O9          -3.5450    -0.1180    -0.4650 o          1 EOG      -0.595100
     24 CL3          0.4280    -1.7820    -2.0520 cl         1 EOG      -0.183000
     25 H1          -1.1610    -0.3190     0.2260 ha         1 EOG       0.156000
     26 H2          -2.0680    -4.8180     0.7570 ha         1 EOG       0.122000
     27 H3          -1.4490    -3.8110    -1.4080 ha         1 EOG       0.137000
     28 H4          -6.0170     1.1460    -0.9200 h1         1 EOG       0.042700
     29 H5          -5.8950     0.8030     0.8100 h1         1 EOG       0.042700
     30 H6          -6.2990     2.4310     0.2560 h1         1 EOG       0.042700
     31 H7          -0.9640    -4.0610     2.8440 ha         1 EOG       0.123000
     32 H8           0.7360    -2.2720     2.7520 ha         1 EOG       0.130000
     33 H9          -2.4150     3.6580    -0.7420 ha         1 EOG       0.121000
     34 H10         -0.0870     4.4150    -0.6840 ha         1 EOG       0.140000
     35 H11          5.0130     2.2440    -0.5290 hc         1 EOG       0.068367
     36 H12          4.3930     3.8210    -0.0040 hc         1 EOG       0.068367
     37 H13          4.8060     2.5690     1.1820 hc         1 EOG       0.068367
     38 H14         -4.0810     2.8760     0.3120 hn         1 EOG       0.318500
     39 C7          -3.3330     1.0660    -0.2430 c          1 EOG       0.608700
@<TRIPOS>BOND
     1     1     2 ar  
     2     1    12 ar  
     3     1    20 1   
     4     2     3 ar  
     5     2    21 1   
     6     3    13 ar  
     7     3    25 1   
     8     4     7 ar  
     9     4    10 ar  
    10     4    14 1   
    11     5     6 ar  
    12     5     9 ar  
    13     5    26 1   
    14     6     7 ar  
    15     6    27 1   
    16     7    24 1   
    17     8    22 1   
    18     8    28 1   
    19     8    29 1   
    20     8    30 1   
    21     9    10 ar  
    22     9    31 1   
    23    10    32 1   
    24    11    12 ar  
    25    11    13 ar  
    26    11    33 1   
    27    12    34 1   
    28    13    39 1   
    29    14    18 2   
    30    14    21 1   
    31    15    16 1   
    32    15    19 2   
    33    15    21 1   
    34    16    17 1   
    35    16    20 2   
    36    17    35 1   
    37    17    36 1   
    38    17    37 1   
    39    18    19 1   
    40    22    38 1   
    41    22    39 1   
    42    23    39 2   
@<TRIPOS>SUBSTRUCTURE
     1 EOG         1 TEMP              0 ****  ****    0 ROOT
