@<TRIPOS>MOLECULE
EOH
    9     8     1     0     0
SMALL
abcg2


@<TRIPOS>ATOM
      1 C1          15.1570    49.2250     7.4810 c3         1 EOH       0.162600
      2 C2          16.0730    50.3760     7.1250 c3         1 EOH      -0.093100
      3 O           15.8770    48.2880     8.2570 oh         1 EOH      -0.662000
      4 H11         14.2870    49.6110     8.0280 h1         1 EOH       0.013700
      5 H12         14.7720    48.7700     6.5600 h1         1 EOH       0.013700
      6 H21         15.5340    51.1080     6.5250 hc         1 EOH       0.042033
      7 H22         16.4430    50.8820     8.0180 hc         1 EOH       0.042033
      8 H23         16.9320    50.0350     6.5450 hc         1 EOH       0.042033
      9 HO          15.2870    47.5570     8.4630 ho         1 EOH       0.439000
@<TRIPOS>BOND
     1     1     2 1   
     2     1     3 1   
     3     1     4 1   
     4     1     5 1   
     5     2     6 1   
     6     2     7 1   
     7     2     8 1   
     8     3     9 1   
@<TRIPOS>SUBSTRUCTURE
     1 EOH         1 TEMP              0 ****  ****    0 ROOT
