@<TRIPOS>MOLECULE
EOH
    9     8     1     0     0
SMALL
No Charge or Current Charge


@<TRIPOS>ATOM
      1 C1          15.1560    49.2210     7.4810 c3         1 EOH       0.162600
      2 C2          16.0780    50.3960     7.1150 c3         1 EOH      -0.093100
      3 O           15.8790    48.2680     8.2640 oh         1 EOH      -0.662000
      4 H11         14.2930    49.6010     8.0430 h1         1 EOH       0.013700
      5 H12         14.7830    48.7540     6.5600 h1         1 EOH       0.013700
      6 H21         15.5320    51.1330     6.5140 hc         1 EOH       0.042033
      7 H22         16.4470    50.8950     8.0190 hc         1 EOH       0.042033
      8 H23         16.9390    50.0470     6.5320 hc         1 EOH       0.042033
      9 HO          15.2540    47.5380     8.4740 ho         1 EOH       0.439000
@<TRIPOS>BOND
     1     1     2 1   
     2     1     3 1   
     3     1     4 1   
     4     1     5 1   
     5     2     6 1   
     6     2     7 1   
     7     2     8 1   
     8     3     9 1   
@<TRIPOS>SUBSTRUCTURE
     1 EOH         1 TEMP              0 ****  ****    0 ROOT
