@<TRIPOS>MOLECULE
EOI
   40    41     1     0     0
SMALL
No Charge or Current Charge


@<TRIPOS>ATOM
      1 C           -1.5230     3.2840     0.7520 c3         1 EOI      -0.111100
      2 N           -3.7140     0.2010    -0.2120 na         1 EOI      -0.284300
      3 O           -1.4260     0.9420     1.4600 os         1 EOI      -0.423000
      4 P            1.1810     0.1410     0.5030 p5         1 EOI       1.828900
      5 S            2.8050    -0.4410     1.5220 s          1 EOI      -1.391000
      6 C1          -1.8260     1.8150     0.3720 c3         1 EOI       0.142300
      7 N1          -3.6780    -1.9310    -1.0760 nc         1 EOI      -0.544100
      8 O1           0.4620    -0.9590    -0.2110 o          1 EOI      -0.798500
      9 P1           2.5180     1.3550    -1.3320 p5         1 EOI       1.509800
     10 C2          -3.3390     1.5890     0.1260 c3         1 EOI       0.097600
     11 N2          -5.9740     0.0800     0.7960 nb         1 EOI      -0.218000
     12 O2           1.3130     1.4570    -0.3450 os         1 EOI      -0.695800
     13 P2           5.1010     1.6310    -0.6970 p5         1 EOI       1.482800
     14 C3          -3.0020    -0.7750    -0.9310 cd         1 EOI       0.421700
     15 N3          -7.0730    -2.0500     0.4680 nb         1 EOI      -0.304000
     16 O3           2.7050    -0.0170    -1.8770 o          1 EOI      -0.867000
     17 C4          -4.8720    -1.6560    -0.4090 ca         1 EOI      -0.056600
     18 O4           2.3020     2.3570    -2.4150 o          1 EOI      -0.867000
     19 C5          -4.9090    -0.3860     0.1130 ca         1 EOI       0.156500
     20 O5           3.6040     1.8430    -0.3110 os         1 EOI      -0.728800
     21 C6          -7.0070    -0.7830     0.9390 ca         1 EOI       0.187900
     22 O6           5.9430     2.7520    -0.1960 o          1 EOI      -0.889000
     23 C7          -6.0000    -2.4830    -0.2110 ca         1 EOI       0.466900
     24 O7           5.3520     0.3680     0.2110 oh         1 EOI      -0.829400
     25 C8           0.0030     0.8580     1.7840 c3         1 EOI      -0.199400
     26 O8           5.4020     1.3280    -2.1220 o          1 EOI      -0.889000
     27 H           -0.4450     3.4790     0.7640 hc         1 EOI       0.020700
     28 HA          -1.9700     3.9660     0.0200 hc         1 EOI       0.020700
     29 HB          -1.9360     3.5260     1.7390 hc         1 EOI       0.020700
     30 HS           4.4210     0.3020     0.5570 ho         1 EOI       0.496000
     31 H1          -1.2900     1.5690    -0.5550 h1         1 EOI       0.077700
     32 H2          -3.6670     2.2370    -0.6970 h1         1 EOI       0.037700
     33 H2A         -3.8910     1.8930     1.0250 h1         1 EOI       0.037700
     34 H3          -2.0140    -0.5720    -1.3260 h5         1 EOI       0.049800
     35 HN4         -6.7710    -4.3790    -0.2830 hn         1 EOI       0.477000
     36 HN4A        -5.2080    -4.1840    -1.0120 hn         1 EOI       0.477000
     37 H6          -7.8720    -0.4210     1.4900 h5         1 EOI       0.014100
     38 H8           0.4110     1.8390     2.0530 h1         1 EOI       0.058700
     39 H8A          0.1380     0.2050     2.6530 h1         1 EOI       0.058700
     40 N4          -6.0720    -3.7600    -0.6830 nv         1 EOI      -1.044900
@<TRIPOS>BOND
     1     1     6 1   
     2     1    27 1   
     3     1    28 1   
     4     1    29 1   
     5     2    10 1   
     6     2    14 1   
     7     2    19 1   
     8     3     6 1   
     9     3    25 1   
    10     4     5 1   
    11     4     8 1   
    12     4    12 1   
    13     4    25 1   
    14     6    10 1   
    15     6    31 1   
    16     7    14 2   
    17     7    17 1   
    18     9    12 1   
    19     9    16 1   
    20     9    18 1   
    21     9    20 1   
    22    10    32 1   
    23    10    33 1   
    24    11    19 ar  
    25    11    21 ar  
    26    13    20 1   
    27    13    22 1   
    28    13    24 1   
    29    13    26 1   
    30    14    34 1   
    31    15    21 ar  
    32    15    23 ar  
    33    17    19 ar  
    34    17    23 ar  
    35    21    37 1   
    36    23    40 1   
    37    24    30 1   
    38    25    38 1   
    39    25    39 1   
    40    35    40 1   
    41    36    40 1   
@<TRIPOS>SUBSTRUCTURE
     1 EOI         1 TEMP              0 ****  ****    0 ROOT
