@<TRIPOS>MOLECULE
EOI
   40    41     1     0     0
SMALL
bcc


@<TRIPOS>ATOM
      1 C           -3.1630     4.3480     0.2970 c3         1 EOI      -0.111100
      2 N           -3.8540     0.6880    -0.4380 na         1 EOI      -0.255000
      3 O           -1.9970     2.3270     0.9440 os         1 EOI      -0.376600
      4 P            0.0280     1.1030    -0.3370 p5         1 EOI       1.671100
      5 S           -0.1430    -0.5840     0.7200 s          1 EOI      -1.391000
      6 C1          -2.8370     2.9010    -0.0360 c3         1 EOI       0.119100
      7 N1          -3.3570    -1.0750    -1.7130 nc         1 EOI      -0.544100
      8 O1          -0.5710     1.1490    -1.7120 o          1 EOI      -0.798500
      9 P1           2.9130     0.8430    -0.9650 p5         1 EOI       1.509800
     10 C2          -4.1080     2.0660    -0.0900 c3         1 EOI       0.068300
     11 N2          -3.8130    -0.3790     1.7400 nb         1 EOI      -0.744000
     12 O2           1.5880     1.6270    -0.3570 os         1 EOI      -0.695800
     13 P2           3.8260    -1.4820     0.6470 p5         1 EOI       1.482800
     14 C3          -3.6290     0.1950    -1.6890 cd         1 EOI       0.421700
     15 N3          -3.2680    -2.7000     1.5880 nb         1 EOI      -0.830000
     16 O3           2.4890    -0.1410    -2.0030 o          1 EOI      -0.867000
     17 C4          -3.3880    -1.4440    -0.3940 ca         1 EOI      -0.187200
     18 O4           3.9060     1.9240    -1.2730 o          1 EOI      -0.867000
     19 C5          -3.6870    -0.3600     0.4160 ca         1 EOI       0.484800
     20 O5           3.3910     0.0960     0.4090 os         1 EOI      -0.728800
     21 C6          -3.5810    -1.5790     2.2370 ca         1 EOI       0.713900
     22 O6           4.0450    -1.5880     2.1280 o          1 EOI      -0.889000
     23 C7          -3.1590    -2.6640     0.2580 ca         1 EOI       0.795200
     24 O7           2.4900    -2.2920     0.2060 oh         1 EOI      -0.820400
     25 C8          -0.6190     2.4790     0.7100 c3         1 EOI      -0.064800
     26 O8           4.9220    -1.8650    -0.2990 o          1 EOI      -0.889000
     27 H           -2.2550     4.9500     0.3510 hc         1 EOI       0.020700
     28 HA          -3.8000     4.7890    -0.4700 hc         1 EOI       0.020700
     29 HB          -3.6790     4.4260     1.2560 hc         1 EOI       0.020700
     30 HS           1.6620    -1.7740     0.3260 ho         1 EOI       0.487000
     31 H1          -2.3550     2.8570    -1.0200 h1         1 EOI       0.077700
     32 H2          -4.7950     2.4930    -0.8220 h1         1 EOI       0.037700
     33 H2A         -4.6150     2.0810     0.8760 h1         1 EOI       0.037700
     34 H3          -3.6950     0.8350    -2.5570 h5         1 EOI       0.049800
     35 HN4         -2.8390    -4.6620     0.0870 hn         1 EOI       0.421800
     36 HN4A        -2.9030    -3.8160    -1.4010 hn         1 EOI       0.421800
     37 H6          -3.6610    -1.6750     3.3150 h5         1 EOI       0.014100
     38 H8          -0.3810     3.4400     0.2340 h1         1 EOI       0.058700
     39 H8A         -0.1080     2.4660     1.6760 h1         1 EOI       0.058700
     40 N4          -2.8150    -3.7830    -0.4010 nv         1 EOI      -0.934500
@<TRIPOS>BOND
     1     1     6 1   
     2     1    27 1   
     3     1    28 1   
     4     1    29 1   
     5     2    10 1   
     6     2    14 1   
     7     2    19 1   
     8     3     6 1   
     9     3    25 1   
    10     4     5 1   
    11     4     8 1   
    12     4    12 1   
    13     4    25 1   
    14     6    10 1   
    15     6    31 1   
    16     7    14 2   
    17     7    17 1   
    18     9    12 1   
    19     9    16 1   
    20     9    18 1   
    21     9    20 1   
    22    10    32 1   
    23    10    33 1   
    24    11    19 ar  
    25    11    21 ar  
    26    13    20 1   
    27    13    22 1   
    28    13    24 1   
    29    13    26 1   
    30    14    34 1   
    31    15    21 ar  
    32    15    23 ar  
    33    17    19 ar  
    34    17    23 ar  
    35    21    37 1   
    36    23    40 1   
    37    24    30 1   
    38    25    38 1   
    39    25    39 1   
    40    35    40 1   
    41    36    40 1   
@<TRIPOS>SUBSTRUCTURE
     1 EOI         1 TEMP              0 ****  ****    0 ROOT
