@<TRIPOS>MOLECULE
EOJ
   60    66     1     0     0
SMALL
No Charge or Current Charge


@<TRIPOS>ATOM
      1 C4           4.9130    -1.8430     0.4940 c6         1 EOJ      -0.081733
      2 C5           4.0040    -0.6500     0.0540 c6         1 EOJ       0.136400
      3 C6           6.1380     1.3860    -0.4290 c6         1 EOJ      -0.070733
      4 C7           5.9270     0.1950    -1.4100 c6         1 EOJ      -0.056367
      5 C8           6.8120    -1.0030    -0.9640 c6         1 EOJ      -0.070733
      6 C13         -2.3500    -2.5170     0.1570 ca         1 EOJ       0.254000
      7 C15         -1.0610    -0.4940    -0.3450 ca         1 EOJ      -0.061000
      8 C17          0.0930    -2.5110     0.3540 ca         1 EOJ      -0.095000
      9 C20         -4.6770    -1.2460    -0.4760 cc         1 EOJ      -0.175000
     10 C22          1.4620    -0.4100    -0.2040 c          1 EOJ       0.616700
     11 C26         -3.0280     1.9910    -0.5710 ca         1 EOJ      -0.111900
     12 C28         -2.0910     3.9910    -1.6180 ca         1 EOJ      -0.111000
     13 C29         -1.4450     4.3250    -0.4170 ca         1 EOJ      -0.078000
     14 C27         -2.8860     2.8340    -1.6930 ca         1 EOJ      -0.061000
     15 C12         -1.1420    -3.1730     0.4450 ca         1 EOJ      -0.070000
     16 C30         -1.6070     3.5070     0.7140 ca         1 EOJ      -0.099000
     17 C16          0.1510    -1.1600    -0.0590 ca         1 EOJ      -0.129600
     18 C14         -2.3100    -1.1420    -0.2000 ca         1 EOJ      -0.053000
     19 C31         -2.4000     2.3500     0.6440 ca         1 EOJ       0.141000
     20 C25         -3.8700     0.7990    -0.6720 cc         1 EOJ       0.397400
     21 C19         -4.6360    -2.6390    -0.1330 cc         1 EOJ       0.447300
     22 C9           6.6360    -0.2460     1.4530 c6         1 EOJ      -0.070733
     23 C11          4.4310    -0.2330    -1.3910 c6         1 EOJ      -0.081733
     24 C1           4.2530     0.5310     1.0470 c6         1 EOJ      -0.081733
     25 C2           5.7500     0.9560     1.0170 c6         1 EOJ      -0.056367
     26 C3           6.4150    -1.4350     0.4760 c6         1 EOJ      -0.056367
     27 C34         -5.9340    -3.3970    -0.1520 c3         1 EOJ      -0.148400
     28 N24         -5.1670     0.8260    -0.9600 nd         1 EOJ      -0.351700
     29 N23         -5.6760    -0.4560    -0.8240 nd         1 EOJ      -0.063000
     30 N18         -3.5290    -3.3020     0.2170 nd         1 EOJ      -0.665000
     31 N21         -3.5380    -0.5200    -0.4370 na         1 EOJ       0.033200
     32 N10          2.6090    -1.1190     0.1000 ns         1 EOJ      -0.494900
     33 O33          1.4960     0.7570    -0.5690 o          1 EOJ      -0.606100
     34 Cl3         -2.6140     1.3870     2.1060 cl         1 EOJ      -0.187000
     35 H1           4.6340    -2.1800     1.5030 hc         1 EOJ       0.051533
     36 H2           4.7560    -2.7040    -0.1700 hc         1 EOJ       0.051533
     37 H3           7.1850     1.7180    -0.4560 hc         1 EOJ       0.042867
     38 H4           5.5330     2.2480    -0.7430 hc         1 EOJ       0.042867
     39 H5           6.2090     0.5020    -2.4270 hc         1 EOJ       0.052700
     40 H6           6.6900    -1.8450    -1.6600 hc         1 EOJ       0.042867
     41 H7           7.8750    -0.7250    -0.9980 hc         1 EOJ       0.042867
     42 H8          -1.0070     0.5310    -0.6940 ha         1 EOJ       0.161000
     43 H9           0.9920    -3.0730     0.5870 ha         1 EOJ       0.116000
     44 H10         -1.9770     4.6290    -2.4920 ha         1 EOJ       0.124000
     45 H11         -0.8310     5.2210    -0.3580 ha         1 EOJ       0.122000
     46 H12         -3.3830     2.5850    -2.6290 ha         1 EOJ       0.130000
     47 H13         -1.1630    -4.2210     0.7330 ha         1 EOJ       0.139000
     48 H14         -1.1220     3.7750     1.6500 ha         1 EOJ       0.135000
     49 H15          7.6950     0.0460     1.4630 hc         1 EOJ       0.042867
     50 H16          6.3880    -0.5470     2.4800 hc         1 EOJ       0.042867
     51 H17          4.2670    -1.0640    -2.0900 hc         1 EOJ       0.051533
     52 H18          3.8130     0.5990    -1.7530 hc         1 EOJ       0.051533
     53 H19          3.6280     1.3950     0.7870 hc         1 EOJ       0.051533
     54 H20          3.9640     0.2390     2.0660 hc         1 EOJ       0.051533
     55 H21          5.9080     1.7970     1.7060 hc         1 EOJ       0.052700
     56 H22          7.0330    -2.2880     0.7880 hc         1 EOJ       0.052700
     57 H23         -6.3850    -3.3620    -1.1500 hc         1 EOJ       0.067700
     58 H24         -5.7910    -4.4500     0.1160 hc         1 EOJ       0.067700
     59 H25         -6.6440    -2.9620     0.5600 hc         1 EOJ       0.067700
     60 H26          2.4600    -2.0750     0.3910 hn         1 EOJ       0.311500
@<TRIPOS>BOND
     1     1     2 1   
     2     1    26 1   
     3     1    35 1   
     4     1    36 1   
     5     2    23 1   
     6     2    24 1   
     7     2    32 1   
     8     3     4 1   
     9     3    25 1   
    10     3    37 1   
    11     3    38 1   
    12     4     5 1   
    13     4    23 1   
    14     4    39 1   
    15     5    26 1   
    16     5    40 1   
    17     5    41 1   
    18     6    15 ar  
    19     6    18 ar  
    20     6    30 1   
    21     7    17 ar  
    22     7    18 ar  
    23     7    42 1   
    24     8    15 ar  
    25     8    17 ar  
    26     8    43 1   
    27     9    21 1   
    28     9    29 2   
    29     9    31 1   
    30    10    17 1   
    31    10    32 1   
    32    10    33 2   
    33    11    14 ar  
    34    11    19 ar  
    35    11    20 1   
    36    12    13 ar  
    37    12    14 ar  
    38    12    44 1   
    39    13    16 ar  
    40    13    45 1   
    41    14    46 1   
    42    15    47 1   
    43    16    19 ar  
    44    16    48 1   
    45    18    31 1   
    46    19    34 1   
    47    20    28 2   
    48    20    31 1   
    49    21    27 1   
    50    21    30 2   
    51    22    25 1   
    52    22    26 1   
    53    22    49 1   
    54    22    50 1   
    55    23    51 1   
    56    23    52 1   
    57    24    25 1   
    58    24    53 1   
    59    24    54 1   
    60    25    55 1   
    61    26    56 1   
    62    27    57 1   
    63    27    58 1   
    64    27    59 1   
    65    28    29 1   
    66    32    60 1   
@<TRIPOS>SUBSTRUCTURE
     1 EOJ         1 TEMP              0 ****  ****    0 ROOT
