@<TRIPOS>MOLECULE
EOJ
   60    66     1     0     0
SMALL
bcc


@<TRIPOS>ATOM
      1 C4           4.8970    -1.8380     0.3820 c6         1 EOJ      -0.081733
      2 C5           3.9620    -0.6550     0.0930 c6         1 EOJ       0.136400
      3 C6           5.9760     1.4460    -0.2980 c6         1 EOJ      -0.070733
      4 C7           5.7510     0.3550    -1.3470 c6         1 EOJ      -0.056367
      5 C8           6.6700    -0.8330    -1.0610 c6         1 EOJ      -0.070733
      6 C13         -2.3190    -2.5330     0.1380 ca         1 EOJ       0.384600
      7 C15         -0.9800    -0.5280    -0.1560 ca         1 EOJ      -0.079000
      8 C17          0.0850    -2.6190     0.3580 ca         1 EOJ      -0.113000
      9 C20         -4.5990    -1.1930    -0.3830 cc         1 EOJ      -0.189600
     10 C22          1.4680    -0.4770    -0.0070 c          1 EOJ       0.683700
     11 C26         -2.9080     1.9680    -0.5980 ca         1 EOJ      -0.111900
     12 C28         -1.8770     3.7750    -1.8190 ca         1 EOJ      -0.129000
     13 C29         -1.3040     4.2430    -0.6450 ca         1 EOJ      -0.096000
     14 C27         -2.6760     2.6420    -1.7930 ca         1 EOJ      -0.079000
     15 C12         -1.1410    -3.2440     0.3830 ca         1 EOJ      -0.153300
     16 C30         -1.5330     3.5910     0.5580 ca         1 EOJ      -0.117000
     17 C16          0.1770    -1.2520     0.0750 ca         1 EOJ      -0.129600
     18 C14         -2.2170    -1.1530    -0.1140 ca         1 EOJ      -0.067600
     19 C31         -2.3370     2.4650     0.5730 ca         1 EOJ       0.049400
     20 C25         -3.7850     0.7940    -0.5770 cc         1 EOJ       0.397400
     21 C19         -4.6080    -2.6070    -0.1220 cc         1 EOJ       0.512600
     22 C9           6.5930    -0.3010     1.3790 c6         1 EOJ      -0.070733
     23 C11          4.2910    -0.1050    -1.3020 c6         1 EOJ      -0.081733
     24 C1           4.2120     0.4280     1.1530 c6         1 EOJ      -0.081733
     25 C2           5.6710     0.8850     1.0930 c6         1 EOJ      -0.056367
     26 C3           6.3580    -1.3890     0.3300 c6         1 EOJ      -0.056367
     27 C34         -5.9070    -3.3300    -0.1570 c3         1 EOJ      -0.148400
     28 N24         -5.0790     0.8460    -0.7730 nd         1 EOJ      -0.351700
     29 N23         -5.5910    -0.3860    -0.6520 nd         1 EOJ      -0.063000
     30 N18         -3.5100    -3.2250     0.1390 nd         1 EOJ      -0.665000
     31 N21         -3.4250    -0.4970    -0.3360 na         1 EOJ      -0.068200
     32 N10          2.5970    -1.1770     0.1590 ns         1 EOJ      -0.561900
     33 O33          1.4330     0.7280    -0.2190 o          1 EOJ      -0.606100
     34 CL3         -2.6300     1.6490     2.0690 cl         1 EOJ      -0.095400
     35 H1           4.6650    -2.2540     1.3690 hc         1 EOJ       0.051533
     36 H2           4.7220    -2.6320    -0.3530 hc         1 EOJ       0.051533
     37 H3           7.0100     1.8020    -0.3410 hc         1 EOJ       0.042867
     38 H4           5.3360     2.3090    -0.5090 hc         1 EOJ       0.042867
     39 H5           5.9650     0.7520    -2.3440 hc         1 EOJ       0.052700
     40 H6           6.5280    -1.6080    -1.8190 hc         1 EOJ       0.042867
     41 H7           7.7190    -0.5230    -1.1170 hc         1 EOJ       0.042867
     42 H8          -0.8880     0.5230    -0.3830 ha         1 EOJ       0.179000
     43 H9           0.9590    -3.2240     0.5590 ha         1 EOJ       0.134000
     44 H10         -1.7010     4.2880    -2.7550 ha         1 EOJ       0.142000
     45 H11         -0.6770     5.1240    -0.6590 ha         1 EOJ       0.140000
     46 H12         -3.1180     2.2660    -2.7050 ha         1 EOJ       0.148000
     47 H13         -1.2160    -4.3040     0.5850 ha         1 EOJ       0.157000
     48 H14         -1.0930     3.9580     1.4750 ha         1 EOJ       0.153000
     49 H15          7.6390     0.0210     1.3590 hc         1 EOJ       0.042867
     50 H16          6.3990    -0.6950     2.3820 hc         1 EOJ       0.042867
     51 H17          4.1180    -0.8880    -2.0480 hc         1 EOJ       0.051533
     52 H18          3.6280     0.7270    -1.5490 hc         1 EOJ       0.051533
     53 H19          3.5460     1.2780     0.9940 hc         1 EOJ       0.051533
     54 H20          3.9830     0.0210     2.1430 hc         1 EOJ       0.051533
     55 H21          5.8270     1.6630     1.8460 hc         1 EOJ       0.052700
     56 H22          7.0010    -2.2490     0.5380 hc         1 EOJ       0.052700
     57 H23         -6.3470    -3.2780    -1.1550 hc         1 EOJ       0.067700
     58 H24         -5.7660    -4.3730     0.1130 hc         1 EOJ       0.067700
     59 H25         -6.6220    -2.8760     0.5300 hc         1 EOJ       0.067700
     60 H26          2.5260    -2.1720     0.2830 hn         1 EOJ       0.311500
@<TRIPOS>BOND
     1     1     2 1   
     2     1    26 1   
     3     1    35 1   
     4     1    36 1   
     5     2    23 1   
     6     2    24 1   
     7     2    32 1   
     8     3     4 1   
     9     3    25 1   
    10     3    37 1   
    11     3    38 1   
    12     4     5 1   
    13     4    23 1   
    14     4    39 1   
    15     5    26 1   
    16     5    40 1   
    17     5    41 1   
    18     6    15 ar  
    19     6    18 ar  
    20     6    30 1   
    21     7    17 ar  
    22     7    18 ar  
    23     7    42 1   
    24     8    15 ar  
    25     8    17 ar  
    26     8    43 1   
    27     9    21 1   
    28     9    29 2   
    29     9    31 1   
    30    10    17 1   
    31    10    32 1   
    32    10    33 2   
    33    11    14 ar  
    34    11    19 ar  
    35    11    20 1   
    36    12    13 ar  
    37    12    14 ar  
    38    12    44 1   
    39    13    16 ar  
    40    13    45 1   
    41    14    46 1   
    42    15    47 1   
    43    16    19 ar  
    44    16    48 1   
    45    18    31 1   
    46    19    34 1   
    47    20    28 2   
    48    20    31 1   
    49    21    27 1   
    50    21    30 2   
    51    22    25 1   
    52    22    26 1   
    53    22    49 1   
    54    22    50 1   
    55    23    51 1   
    56    23    52 1   
    57    24    25 1   
    58    24    53 1   
    59    24    54 1   
    60    25    55 1   
    61    26    56 1   
    62    27    57 1   
    63    27    58 1   
    64    27    59 1   
    65    28    29 1   
    66    32    60 1   
@<TRIPOS>SUBSTRUCTURE
     1 EOJ         1 TEMP              0 ****  ****    0 ROOT
