@<TRIPOS>MOLECULE
EOL
   24    24     1     0     0
SMALL
abcg2


@<TRIPOS>ATOM
      1 C1           0.0210    -0.7890    -0.3900 ca         1 EOL      -0.149000
      2 O1           2.7330     1.5720     0.2850 oh         1 EOL      -0.535100
      3 C2          -1.0540     0.0860    -0.5540 ca         1 EOL      -0.080300
      4 O2           2.3950    -1.0730     0.0670 os         1 EOL      -0.368100
      5 C3           1.2920    -0.3100    -0.1070 ca         1 EOL       0.046100
      6 C4          -0.8300     1.4490    -0.4300 ca         1 EOL      -0.099000
      7 C5           1.5080     1.0720     0.0140 ca         1 EOL       0.119100
      8 C6           0.4420     1.9380    -0.1510 ca         1 EOL      -0.122000
      9 C7          -2.4410    -0.4470    -0.8160 c3         1 EOL       0.004100
     10 C8          -3.2230    -0.5750     0.4580 c2         1 EOL      -0.213200
     11 C9          -4.3320     0.0990     0.7360 c2         1 EOL      -0.318000
     12 C10          2.2760    -2.4750    -0.0610 c3         1 EOL       0.157900
     13 H1          -0.1510    -1.8530    -0.4880 ha         1 EOL       0.115000
     14 HO1          3.3710     0.8530     0.3730 ho         1 EOL       0.480000
     15 H4          -1.6510     2.1460    -0.5500 ha         1 EOL       0.117000
     16 H6           0.6100     3.0050    -0.0620 ha         1 EOL       0.130000
     17 H7          -2.9720     0.2120    -1.5070 hc         1 EOL       0.051200
     18 H7A         -2.3700    -1.4260    -1.2990 hc         1 EOL       0.051200
     19 H8          -2.8200    -1.2650     1.1940 ha         1 EOL       0.168000
     20 H9          -4.8480    -0.0230     1.6790 ha         1 EOL       0.161500
     21 H9A         -4.7630     0.8020     0.0310 ha         1 EOL       0.161500
     22 H10          3.2670    -2.8870     0.1100 h1         1 EOL       0.041033
     23 H10A         1.5880    -2.8930     0.6780 h1         1 EOL       0.041033
     24 H10B         1.9390    -2.7640    -1.0600 h1         1 EOL       0.041033
@<TRIPOS>BOND
     1     1     3 ar  
     2     1     5 ar  
     3     1    13 1   
     4     2     7 1   
     5     2    14 1   
     6     3     6 ar  
     7     3     9 1   
     8     4     5 1   
     9     4    12 1   
    10     5     7 ar  
    11     6     8 ar  
    12     6    15 1   
    13     7     8 ar  
    14     8    16 1   
    15     9    10 1   
    16     9    17 1   
    17     9    18 1   
    18    10    11 2   
    19    10    19 1   
    20    11    20 1   
    21    11    21 1   
    22    12    22 1   
    23    12    23 1   
    24    12    24 1   
@<TRIPOS>SUBSTRUCTURE
     1 EOL         1 TEMP              0 ****  ****    0 ROOT
