@<TRIPOS>MOLECULE
EOL
   24    24     1     0     0
SMALL
No Charge or Current Charge


@<TRIPOS>ATOM
      1 C1           0.0340    -0.7630    -0.3720 ca         1 EOL      -0.149000
      2 O1           2.8020     1.5910     0.2380 oh         1 EOL      -0.535100
      3 C2          -1.0420     0.1350    -0.5250 ca         1 EOL      -0.080300
      4 O2           2.4270    -1.1150     0.0430 os         1 EOL      -0.368100
      5 C3           1.3360    -0.2750    -0.1150 ca         1 EOL       0.046100
      6 C4          -0.8160     1.5200    -0.4150 ca         1 EOL      -0.099000
      7 C5           1.5470     1.1150    -0.0110 ca         1 EOL       0.119100
      8 C6           0.4760     2.0090    -0.1600 ca         1 EOL      -0.122000
      9 C7          -2.4460    -0.3880    -0.7980 c3         1 EOL       0.004100
     10 C8          -3.2490    -0.5500     0.4770 c2         1 EOL      -0.213200
     11 C9          -4.4470     0.0070     0.7170 c2         1 EOL      -0.318000
     12 C10          2.3120    -2.5480    -0.0450 c3         1 EOL       0.157900
     13 H1          -0.1570    -1.8290    -0.4540 ha         1 EOL       0.115000
     14 HO1          3.3880     0.8040     0.3060 ho         1 EOL       0.480000
     15 H4          -1.6430     2.2180    -0.5260 ha         1 EOL       0.117000
     16 H6           0.6460     3.0800    -0.0760 ha         1 EOL       0.130000
     17 H7          -2.9640     0.2860    -1.4910 hc         1 EOL       0.051200
     18 H7A         -2.3900    -1.3540    -1.3160 hc         1 EOL       0.051200
     19 H8          -2.7710    -1.1800     1.2310 ha         1 EOL       0.168000
     20 H9          -4.9710    -0.1520     1.6610 ha         1 EOL       0.161500
     21 H9A         -4.9460     0.6410    -0.0180 ha         1 EOL       0.161500
     22 H10          3.2920    -3.0180     0.1100 h1         1 EOL       0.041033
     23 H10A         1.6270    -2.9320     0.7210 h1         1 EOL       0.041033
     24 H10B         1.9430    -2.8500    -1.0330 h1         1 EOL       0.041033
@<TRIPOS>BOND
     1     1     3 ar  
     2     1     5 ar  
     3     1    13 1   
     4     2     7 1   
     5     2    14 1   
     6     3     6 ar  
     7     3     9 1   
     8     4     5 1   
     9     4    12 1   
    10     5     7 ar  
    11     6     8 ar  
    12     6    15 1   
    13     7     8 ar  
    14     8    16 1   
    15     9    10 1   
    16     9    17 1   
    17     9    18 1   
    18    10    11 2   
    19    10    19 1   
    20    11    20 1   
    21    11    21 1   
    22    12    22 1   
    23    12    23 1   
    24    12    24 1   
@<TRIPOS>SUBSTRUCTURE
     1 EOL         1 TEMP              0 ****  ****    0 ROOT
