@<TRIPOS>MOLECULE
EON
   38    39     1     0     0
SMALL
No Charge or Current Charge


@<TRIPOS>ATOM
      1 C2          -4.6770     0.2080     0.0600 ca         1 EON       0.103100
      2 C3          -3.4160     0.8440     0.0020 ca         1 EON      -0.052000
      3 C4          -3.3580     2.2530    -0.1000 ca         1 EON      -0.075000
      4 C5          -4.5400     3.0110    -0.1440 ca         1 EON      -0.126000
      5 C6          -5.7890     2.3770    -0.0860 ca         1 EON      -0.087000
      6 C7          -5.8610     0.9790     0.0160 ca         1 EON      -0.179000
      7 C9          -0.8970     0.2950     0.0120 c          1 EON       0.661100
      8 N10         -0.1400    -0.8640     0.0910 ns         1 EON      -0.165000
      9 C14          3.6100    -0.3790     0.0810 ca         1 EON      -0.290500
     10 C15          4.0300    -1.7220     0.1200 ca         1 EON       0.020000
     11 C16          3.0750    -2.7500     0.1490 ca         1 EON      -0.208000
     12 C17          1.7060    -2.4450     0.1390 ca         1 EON       0.145100
     13 O20          4.2110     2.2080     0.3850 o          1 EON      -0.540000
     14 C1          -5.9400    -1.9150     0.2260 c3         1 EON       0.151900
     15 O1          -4.7090    -1.1720     0.1600 os         1 EON      -0.358100
     16 N8          -2.2550     0.0160     0.0500 ns         1 EON      -0.159000
     17 O11         -0.4240     1.4210    -0.0840 o          1 EON      -0.604100
     18 C12          1.2670    -1.1040     0.0980 ca         1 EON      -0.056000
     19 C13          2.2320    -0.0690     0.0710 ca         1 EON       0.001000
     20 S19          4.8350     0.9310     0.0480 sy         1 EON       1.126600
     21 O21          6.0900     0.4760     0.6450 o          1 EON      -0.540000
     22 N22          5.1430     1.0550    -1.5540 n8         1 EON      -0.999100
     23 H1          -2.4110     2.7810    -0.1470 ha         1 EON       0.136000
     24 H2          -4.4860     4.0950    -0.2220 ha         1 EON       0.120000
     25 H3          -6.7020     2.9690    -0.1200 ha         1 EON       0.114000
     26 H4          -6.8420     0.5130     0.0590 ha         1 EON       0.117000
     27 H5          -0.6860    -1.7130     0.1560 hn         1 EON       0.161000
     28 H6           5.0900    -1.9730     0.1270 ha         1 EON       0.141000
     29 H7           3.4110    -3.7840     0.1790 ha         1 EON       0.120000
     30 H8          -6.5270    -1.6200     1.1050 h1         1 EON       0.041700
     31 H9          -6.5450    -1.7490    -0.6750 h1         1 EON       0.041700
     32 H10         -5.7320    -2.9890     0.3010 h1         1 EON       0.041700
     33 H11         -2.4740    -0.9690     0.1290 hn         1 EON       0.158000
     34 H12          1.9290     0.9740     0.0470 ha         1 EON       0.163000
     35 H13          1.2860    -4.3160     0.1950 ho         1 EON       0.477000
     36 H14          4.3100     0.6480    -1.9700 hn         1 EON       0.469000
     37 H15          5.0260     2.0550    -1.6980 hn         1 EON       0.469000
     38 O18          0.7970    -3.4650     0.1690 oh         1 EON      -0.541100
@<TRIPOS>BOND
     1     1     2 ar  
     2     1     6 ar  
     3     1    15 1   
     4     2     3 ar  
     5     2    16 1   
     6     3     4 ar  
     7     3    23 1   
     8     4     5 ar  
     9     4    24 1   
    10     5     6 ar  
    11     5    25 1   
    12     6    26 1   
    13     7     8 1   
    14     7    16 1   
    15     7    17 2   
    16     8    18 1   
    17     8    27 1   
    18     9    10 ar  
    19     9    19 ar  
    20     9    20 1   
    21    10    11 ar  
    22    10    28 1   
    23    11    12 ar  
    24    11    29 1   
    25    12    18 ar  
    26    12    38 1   
    27    13    20 2   
    28    14    15 1   
    29    14    30 1   
    30    14    31 1   
    31    14    32 1   
    32    16    33 1   
    33    18    19 ar  
    34    19    34 1   
    35    20    21 2   
    36    20    22 1   
    37    22    36 1   
    38    22    37 1   
    39    35    38 1   
@<TRIPOS>SUBSTRUCTURE
     1 EON         1 TEMP              0 ****  ****    0 ROOT
