@<TRIPOS>MOLECULE
EON
   38    39     1     0     0
SMALL
abcg2


@<TRIPOS>ATOM
      1 C2          -4.5860     0.1680     0.1130 ca         1 EON       0.103100
      2 C3          -3.3650     0.7000    -0.3380 ca         1 EON      -0.052000
      3 C4          -3.2460     2.0700    -0.5230 ca         1 EON      -0.075000
      4 C5          -4.3120     2.9170    -0.2480 ca         1 EON      -0.126000
      5 C6          -5.5140     2.3890     0.1910 ca         1 EON      -0.087000
      6 C7          -5.6570     1.0170     0.3630 ca         1 EON      -0.179000
      7 C9          -1.0280    -0.0090    -0.2060 c          1 EON       0.661100
      8 N10         -0.2060    -1.0430    -0.5730 ns         1 EON      -0.165000
      9 C14          3.3460    -0.2900     0.1520 ca         1 EON      -0.290500
     10 C15          3.8490    -1.5610     0.3780 ca         1 EON       0.020000
     11 C16          2.9920    -2.6410     0.2910 ca         1 EON      -0.208000
     12 C17          1.6470    -2.4530    -0.0060 ca         1 EON       0.145100
     13 O20          3.6420     2.2910     0.4560 o          1 EON      -0.540000
     14 C1          -5.8350    -1.7790     0.6510 c3         1 EON       0.151900
     15 O1          -4.6200    -1.1710     0.2600 os         1 EON      -0.358100
     16 N8          -2.3170    -0.1870    -0.6220 ns         1 EON      -0.159000
     17 O11         -0.6430     0.9690     0.4090 o          1 EON      -0.604100
     18 C12          1.1430    -1.1610    -0.2390 ca         1 EON      -0.056000
     19 C13          2.0100    -0.0800    -0.1610 ca         1 EON       0.001000
     20 S19          4.4400     1.0890     0.2440 sy         1 EON       1.126600
     21 O21          5.5110     0.8010     1.1880 o          1 EON      -0.540000
     22 N22          5.1420     1.0460    -1.2550 n8         1 EON      -0.999100
     23 H1          -2.3180     2.4800    -0.8960 ha         1 EON       0.136000
     24 H2          -4.2010     3.9830    -0.3920 ha         1 EON       0.120000
     25 H3          -6.3540     3.0380     0.4000 ha         1 EON       0.114000
     26 H4          -6.6050     0.6260     0.7050 ha         1 EON       0.117000
     27 H5          -0.6250    -1.8510    -1.0080 hn         1 EON       0.161000
     28 H6           4.8900    -1.7220     0.6220 ha         1 EON       0.141000
     29 H7           3.3660    -3.6410     0.4750 ha         1 EON       0.120000
     30 H8          -6.1600    -1.4430     1.6390 h1         1 EON       0.041700
     31 H9          -6.6360    -1.5880    -0.0690 h1         1 EON       0.041700
     32 H10         -5.6450    -2.8490     0.6890 h1         1 EON       0.041700
     33 H11         -2.5850    -1.0970    -0.9660 hn         1 EON       0.158000
     34 H12          1.6450     0.9170    -0.3540 ha         1 EON       0.163000
     35 H13          1.2170    -4.3150     0.0160 ho         1 EON       0.477000
     36 H14          4.5030     1.3340    -1.9890 hn         1 EON       0.469000
     37 H15          5.9800     1.6210    -1.2840 hn         1 EON       0.469000
     38 O18          0.7730    -3.4660    -0.0930 oh         1 EON      -0.541100
@<TRIPOS>BOND
     1     1     2 ar  
     2     1     6 ar  
     3     1    15 1   
     4     2     3 ar  
     5     2    16 1   
     6     3     4 ar  
     7     3    23 1   
     8     4     5 ar  
     9     4    24 1   
    10     5     6 ar  
    11     5    25 1   
    12     6    26 1   
    13     7     8 1   
    14     7    16 1   
    15     7    17 2   
    16     8    18 1   
    17     8    27 1   
    18     9    10 ar  
    19     9    19 ar  
    20     9    20 1   
    21    10    11 ar  
    22    10    28 1   
    23    11    12 ar  
    24    11    29 1   
    25    12    18 ar  
    26    12    38 1   
    27    13    20 2   
    28    14    15 1   
    29    14    30 1   
    30    14    31 1   
    31    14    32 1   
    32    16    33 1   
    33    18    19 ar  
    34    19    34 1   
    35    20    21 2   
    36    20    22 1   
    37    22    36 1   
    38    22    37 1   
    39    35    38 1   
@<TRIPOS>SUBSTRUCTURE
     1 EON         1 TEMP              0 ****  ****    0 ROOT
