@<TRIPOS>MOLECULE
EOO
   47    49     1     0     0
SMALL
bcc


@<TRIPOS>ATOM
      1 C17         19.1400    -1.8950     5.5390 c6         1 EOO      -0.102700
      2 C20         19.1850     0.4190     6.5740 c2         1 EOO      -0.211200
      3 C21         20.3050     0.7080     5.9180 c2         1 EOO      -0.132200
      4 C22         21.1000    -0.2920     5.1430 c6         1 EOO      -0.025200
      5 C23         20.6510    -1.7380     5.3770 c6         1 EOO      -0.177700
      6 C24         21.2300    -2.7010     4.3160 c          1 EOO       0.934600
      7 C16         18.3920    -1.6770     4.2400 c          1 EOO       0.721100
      8 C01         14.3650    -2.7210     1.0980 ca         1 EOO       0.010600
      9 C02         14.5070    -3.7220     2.0610 ca         1 EOO      -0.078300
     10 C03         15.4970    -3.6110     3.0220 ca         1 EOO      -0.183000
     11 C04         16.3590    -2.5130     3.0630 ca         1 EOO       0.109600
     12 C05         16.2300    -1.5330     2.0770 ca         1 EOO      -0.146000
     13 C06         15.2540    -1.6540     1.0990 ca         1 EOO      -0.100000
     14 C08         13.1010    -4.2280    -0.4300 c6         1 EOO       0.122000
     15 C09         13.7180    -5.3250     0.4280 c6         1 EOO      -0.091400
     16 C10         13.6550    -4.9420     1.9050 c6         1 EOO      -0.025100
     17 C14         11.8120     0.3130     0.0700 c3         1 EOO       0.145700
     18 C19         18.5900    -0.9520     6.6230 c6         1 EOO      -0.031200
     19 N07         13.3550    -2.8900     0.1230 n          1 EOO      -0.376000
     20 N15         17.2970    -2.4780     4.0960 ns         1 EOO      -0.471100
     21 O12         12.6380    -0.7870     0.4370 os         1 EOO      -0.409900
     22 O13         11.7120    -2.0300    -1.1830 o          1 EOO      -0.608000
     23 O18         18.6900    -0.8160     3.4310 o          1 EOO      -0.582100
     24 O25         20.4490    -3.5460     3.8300 o          1 EOO      -0.836300
     25 O26         22.4390    -2.5640     4.0460 o          1 EOO      -0.836300
     26 H171        18.9450    -2.9160     5.8730 hc         1 EOO       0.055700
     27 H201        18.6680     1.2000     7.1210 ha         1 EOO       0.096000
     28 H211        20.6740     1.7290     5.9260 ha         1 EOO       0.096000
     29 H222        22.1540    -0.1980     5.4180 hc         1 EOO       0.061200
     30 H221        21.0570    -0.0300     4.0830 hc         1 EOO       0.061200
     31 H231        21.0790    -2.0410     6.3430 hc         1 EOO       0.030700
     32 H031        15.6080    -4.4050     3.7540 ha         1 EOO       0.127000
     33 H051        16.8900    -0.6820     2.0490 ha         1 EOO       0.172000
     34 H061        15.1990    -0.8940     0.3330 ha         1 EOO       0.133000
     35 H081        12.0220    -4.3760    -0.4680 h1         1 EOO       0.048200
     36 H082        13.4750    -4.2900    -1.4550 h1         1 EOO       0.048200
     37 H092        13.1820    -6.2540     0.2310 hc         1 EOO       0.050700
     38 H091        14.7610    -5.4950     0.1520 hc         1 EOO       0.050700
     39 H101        12.6180    -4.7410     2.1950 hc         1 EOO       0.048200
     40 H102        14.0150    -5.7510     2.5400 hc         1 EOO       0.048200
     41 H142        12.0680     1.1150     0.7560 h1         1 EOO       0.043033
     42 H141        12.0060     0.6410    -0.9520 h1         1 EOO       0.043033
     43 H143        10.7540     0.0750     0.1740 h1         1 EOO       0.043033
     44 H191        17.4990    -0.8910     6.5610 hc         1 EOO       0.027700
     45 H192        18.7920    -1.3980     7.6030 hc         1 EOO       0.027700
     46 H151        17.1840    -3.2010     4.7900 hn         1 EOO       0.312500
     47 C11         12.5110    -1.9010    -0.2800 c          1 EOO       0.756100
@<TRIPOS>BOND
     1     1     5 1   
     2     1     7 1   
     3     1    18 1   
     4     1    26 1   
     5     2     3 2   
     6     2    18 1   
     7     2    27 1   
     8     3     4 1   
     9     3    28 1   
    10     4     5 1   
    11     4    29 1   
    12     4    30 1   
    13     5     6 1   
    14     5    31 1   
    15     6    24 1   
    16     6    25 1   
    17     7    20 1   
    18     7    23 2   
    19     8     9 ar  
    20     8    13 ar  
    21     8    19 1   
    22     9    10 ar  
    23     9    16 1   
    24    10    11 ar  
    25    10    32 1   
    26    11    12 ar  
    27    11    20 1   
    28    12    13 ar  
    29    12    33 1   
    30    13    34 1   
    31    14    15 1   
    32    14    19 1   
    33    14    35 1   
    34    14    36 1   
    35    15    16 1   
    36    15    37 1   
    37    15    38 1   
    38    16    39 1   
    39    16    40 1   
    40    17    21 1   
    41    17    41 1   
    42    17    42 1   
    43    17    43 1   
    44    18    44 1   
    45    18    45 1   
    46    19    47 1   
    47    20    46 1   
    48    21    47 1   
    49    22    47 2   
@<TRIPOS>SUBSTRUCTURE
     1 EOO         1 TEMP              0 ****  ****    0 ROOT
