@<TRIPOS>MOLECULE
EOO
   47    49     1     0     0
SMALL
No Charge or Current Charge


@<TRIPOS>ATOM
      1 C17         19.0970    -1.6670     5.6360 c6         1 EOO      -0.102700
      2 C20         19.5590     0.4690     6.9440 c2         1 EOO      -0.261200
      3 C21         20.6040     0.7400     6.1380 c2         1 EOO      -0.182200
      4 C22         21.1470    -0.2320     5.0920 c6         1 EOO      -0.025200
      5 C23         20.6240    -1.6790     5.3090 c6         1 EOO      -0.177700
      6 C24         21.0120    -2.6480     4.1650 c          1 EOO       0.724000
      7 C16         18.1570    -1.3260     4.4420 c          1 EOO       0.654100
      8 C01         14.3920    -2.8620     0.9780 ca         1 EOO      -0.082000
      9 C02         14.6320    -3.8550     1.9570 ca         1 EOO      -0.078300
     10 C03         15.6150    -3.6690     2.9460 ca         1 EOO      -0.165000
     11 C04         16.3710    -2.4870     3.0010 ca         1 EOO       0.017000
     12 C05         16.1350    -1.4890     2.0340 ca         1 EOO      -0.128000
     13 C06         15.1500    -1.6700     1.0480 ca         1 EOO      -0.082000
     14 C08         12.8260    -4.4020    -0.2860 c6         1 EOO       0.122000
     15 C09         13.6320    -5.5260     0.4020 c6         1 EOO      -0.091400
     16 C10         13.8780    -5.1770     1.8810 c6         1 EOO      -0.025100
     17 C14         11.8270     0.3610    -0.2080 c3         1 EOO       0.168900
     18 C19         18.7830    -0.8430     6.9130 c6         1 EOO      -0.031200
     19 N07         13.2480    -3.0160     0.0790 n          1 EOO      -0.216400
     20 N15         17.3460    -2.3770     4.0290 ns         1 EOO      -0.145000
     21 O12         12.6320    -0.7600     0.2000 os         1 EOO      -0.433100
     22 O13         11.5670    -2.1390    -1.2760 o          1 EOO      -0.559000
     23 O18         18.1230    -0.2040     3.9440 o          1 EOO      -0.582100
     24 O25         20.5630    -2.4400     3.0490 o          1 EOO      -0.731000
     25 O26         21.7420    -3.5900     4.4350 o          1 EOO      -0.731000
     26 H171        18.8530    -2.7070     5.8930 hc         1 EOO       0.055700
     27 H201        19.2210     1.2090     7.6720 ha         1 EOO       0.146000
     28 H211        21.1170     1.7000     6.2080 ha         1 EOO       0.146000
     29 H222        22.2460    -0.2340     5.1270 hc         1 EOO       0.061200
     30 H221        20.8740     0.1300     4.0910 hc         1 EOO       0.061200
     31 H231        21.1300    -2.0570     6.2100 hc         1 EOO       0.030700
     32 H031        15.7950    -4.4540     3.6770 ha         1 EOO       0.109000
     33 H051        16.7050    -0.5660     2.0230 ha         1 EOO       0.154000
     34 H061        15.0140    -0.8810     0.3140 ha         1 EOO       0.115000
     35 H081        11.7690    -4.5180    -0.0070 h1         1 EOO       0.048200
     36 H082        12.8900    -4.5270    -1.3760 h1         1 EOO       0.048200
     37 H092        13.1000    -6.4830     0.3120 hc         1 EOO       0.050700
     38 H091        14.5970    -5.6510    -0.1080 hc         1 EOO       0.050700
     39 H101        12.9230    -5.0980     2.4200 hc         1 EOO       0.048200
     40 H102        14.4510    -5.9820     2.3610 hc         1 EOO       0.048200
     41 H142        12.1040     1.2560     0.3630 h1         1 EOO       0.043033
     42 H141        11.9730     0.5790    -1.2740 h1         1 EOO       0.043033
     43 H143        10.7620     0.1610    -0.0350 h1         1 EOO       0.043033
     44 H191        17.7040    -0.6460     6.9800 hc         1 EOO       0.027700
     45 H192        19.0470    -1.4270     7.8050 hc         1 EOO       0.027700
     46 H151        17.4750    -3.2290     4.5580 hn         1 EOO       0.146000
     47 C11         12.4230    -1.9660    -0.4150 c          1 EOO       0.640100
@<TRIPOS>BOND
     1     1     5 1   
     2     1     7 1   
     3     1    18 1   
     4     1    26 1   
     5     2     3 2   
     6     2    18 1   
     7     2    27 1   
     8     3     4 1   
     9     3    28 1   
    10     4     5 1   
    11     4    29 1   
    12     4    30 1   
    13     5     6 1   
    14     5    31 1   
    15     6    24 1   
    16     6    25 1   
    17     7    20 1   
    18     7    23 2   
    19     8     9 ar  
    20     8    13 ar  
    21     8    19 1   
    22     9    10 ar  
    23     9    16 1   
    24    10    11 ar  
    25    10    32 1   
    26    11    12 ar  
    27    11    20 1   
    28    12    13 ar  
    29    12    33 1   
    30    13    34 1   
    31    14    15 1   
    32    14    19 1   
    33    14    35 1   
    34    14    36 1   
    35    15    16 1   
    36    15    37 1   
    37    15    38 1   
    38    16    39 1   
    39    16    40 1   
    40    17    21 1   
    41    17    41 1   
    42    17    42 1   
    43    17    43 1   
    44    18    44 1   
    45    18    45 1   
    46    19    47 1   
    47    20    46 1   
    48    21    47 1   
    49    22    47 2   
@<TRIPOS>SUBSTRUCTURE
     1 EOO         1 TEMP              0 ****  ****    0 ROOT
