@<TRIPOS>MOLECULE
EOP
   28    27     1     0     0
SMALL
bcc


@<TRIPOS>ATOM
      1 OAD          6.0740     0.5970     0.8160 o          1 EOP      -0.925500
      2 PAR          4.8020     0.4790    -0.0230 p5         1 EOP       1.155200
      3 OAH          3.7240     1.5260     0.3520 o          1 EOP      -0.925500
      4 OAG          5.0320     0.3510    -1.5270 o          1 EOP      -0.925500
      5 CAL          4.0260    -1.1450     0.5060 c3         1 EOP      -0.324100
      6 CAP          2.6770    -1.4410    -0.1000 c          1 EOP       0.698600
      7 OAB          2.3550    -2.5570    -0.5110 o          1 EOP      -0.754600
      8 NAN          1.8460    -0.3870    -0.1220 ns         1 EOP      -0.588900
      9 CAJ          0.4930    -0.4540    -0.6070 c3         1 EOP       0.093000
     10 CAI         -0.4850    -0.8990     0.4770 c3         1 EOP       0.093000
     11 NAM         -1.8350    -0.8680    -0.0310 ns         1 EOP      -0.588900
     12 CAO         -2.8450    -1.5620     0.5250 c          1 EOP       0.698600
     13 OAA         -2.6800    -2.3630     1.4450 o          1 EOP      -0.754600
     14 CAK         -4.1870    -1.2850    -0.0970 c3         1 EOP      -0.324100
     15 PAQ         -4.5980     0.5440    -0.2090 p5         1 EOP       1.155200
     16 OAF         -5.9550     0.6010    -0.9120 o          1 EOP      -0.925500
     17 OAE         -4.6000     1.0510     1.2310 o          1 EOP      -0.925500
     18 OAC         -3.4400     1.1110    -1.0660 o          1 EOP      -0.925500
     19 HAL1         4.6960    -1.9810     0.2930 hc         1 EOP       0.023700
     20 HAL2         3.8980    -1.1200     1.5950 hc         1 EOP       0.023700
     21 HAN          2.2850     0.5160     0.1100 hn         1 EOP       0.389500
     22 HAJ1         0.2170     0.5410    -0.9630 h1         1 EOP       0.030450
     23 HAJ2         0.4260    -1.1310    -1.4620 h1         1 EOP       0.030450
     24 HAI1        -0.2370    -1.9130     0.7930 h1         1 EOP       0.030450
     25 HAI2        -0.3690    -0.2500     1.3530 h1         1 EOP       0.030450
     26 HAM         -2.1490    -0.0480    -0.5740 hn         1 EOP       0.389500
     27 HAK1        -4.1920    -1.6900    -1.1150 hc         1 EOP       0.023700
     28 HAK2        -4.9550    -1.8190     0.4670 hc         1 EOP       0.023700
@<TRIPOS>BOND
     1     1     2 1   
     2     2     3 1   
     3     2     4 1   
     4     2     5 1   
     5     5     6 1   
     6     5    19 1   
     7     5    20 1   
     8     6     7 2   
     9     6     8 1   
    10     8     9 1   
    11     8    21 1   
    12     9    10 1   
    13     9    22 1   
    14     9    23 1   
    15    10    11 1   
    16    10    24 1   
    17    10    25 1   
    18    11    12 1   
    19    11    26 1   
    20    12    13 2   
    21    12    14 1   
    22    14    15 1   
    23    14    27 1   
    24    14    28 1   
    25    15    16 1   
    26    15    17 1   
    27    15    18 1   
@<TRIPOS>SUBSTRUCTURE
     1 EOP         1 TEMP              0 ****  ****    0 ROOT
