@<TRIPOS>MOLECULE
EOP
   28    27     1     0     0
SMALL
No Charge or Current Charge


@<TRIPOS>ATOM
      1 OAD          6.2150     0.5010     0.5450 o          1 EOP      -0.925500
      2 PAR          4.9670     0.3990    -0.2630 p5         1 EOP       1.313000
      3 OAH          4.1530     1.6350    -0.0960 o          1 EOP      -0.925500
      4 OAG          5.3120     0.1710    -1.6940 o          1 EOP      -0.925500
      5 CAL          4.0400    -1.0130     0.3790 c3         1 EOP      -0.481900
      6 CAP          2.6900    -0.9610    -0.2740 c          1 EOP       0.631600
      7 OAB          2.4610    -1.4570    -1.3670 o          1 EOP      -0.754600
      8 NAN          1.7080    -0.3940     0.4970 ns         1 EOP      -0.521900
      9 CAJ          0.2900    -0.2980     0.1320 c3         1 EOP       0.093000
     10 CAI         -0.4500    -1.6540     0.2320 c3         1 EOP       0.093000
     11 NAM         -1.8750    -1.5580    -0.1000 ns         1 EOP      -0.521900
     12 CAO         -2.8420    -1.0120     0.7040 c          1 EOP       0.631600
     13 OAA         -2.5980    -0.5890     1.8250 o          1 EOP      -0.754600
     14 CAK         -4.2320    -1.0840     0.1440 c3         1 EOP      -0.481900
     15 PAQ         -4.5700     0.5350    -0.5820 p5         1 EOP       1.313000
     16 OAF         -5.8430     0.4080    -1.3470 o          1 EOP      -0.925500
     17 OAE         -4.7300     1.5500     0.4970 o          1 EOP      -0.925500
     18 OAC         -3.4590     0.8980    -1.5030 o          1 EOP      -0.925500
     19 HAL1         4.5810    -1.9280     0.1170 hc         1 EOP       0.023700
     20 HAL2         3.9770    -0.8670     1.4630 hc         1 EOP       0.023700
     21 HAN          2.0110    -0.0100     1.3830 hn         1 EOP       0.389500
     22 HAJ1        -0.1870     0.4290     0.8020 h1         1 EOP       0.030450
     23 HAJ2         0.2130     0.0880    -0.8930 h1         1 EOP       0.030450
     24 HAI1         0.0130    -2.3750    -0.4530 h1         1 EOP       0.030450
     25 HAI2        -0.3520    -2.0500     1.2510 h1         1 EOP       0.030450
     26 HAM         -2.1890    -1.8820    -1.0060 hn         1 EOP       0.389500
     27 HAK1        -4.3060    -1.8060    -0.6770 hc         1 EOP       0.023700
     28 HAK2        -4.9740    -1.2740     0.9260 hc         1 EOP       0.023700
@<TRIPOS>BOND
     1     1     2 1   
     2     2     3 1   
     3     2     4 1   
     4     2     5 1   
     5     5     6 1   
     6     5    19 1   
     7     5    20 1   
     8     6     7 2   
     9     6     8 1   
    10     8     9 1   
    11     8    21 1   
    12     9    10 1   
    13     9    22 1   
    14     9    23 1   
    15    10    11 1   
    16    10    24 1   
    17    10    25 1   
    18    11    12 1   
    19    11    26 1   
    20    12    13 2   
    21    12    14 1   
    22    14    15 1   
    23    14    27 1   
    24    14    28 1   
    25    15    16 1   
    26    15    17 1   
    27    15    18 1   
@<TRIPOS>SUBSTRUCTURE
     1 EOP         1 TEMP              0 ****  ****    0 ROOT
