@<TRIPOS>MOLECULE
EOQ
   43    44     1     0     0
SMALL
bcc


@<TRIPOS>ATOM
      1 C6           1.5000    -1.8160    -0.2020 ca         1 EOQ       0.200400
      2 C7           0.1270    -1.7740    -0.1970 ca         1 EOQ      -0.268000
      3 C8          -0.5680    -0.5720     0.0510 ca         1 EOQ       0.310600
      4 C9           0.1990     0.6120     0.2440 ca         1 EOQ      -0.275600
      5 C10          1.5800     0.5270     0.2480 ca         1 EOQ       0.051000
      6 C12         -0.4700     1.9230     0.4750 c          1 EOQ       0.692700
      7 C2           2.2570    -0.6660     0.0350 ca         1 EOQ      -0.362500
      8 N5           4.3480    -1.6300     1.3490 n8         1 EOQ      -0.902700
      9 C15         -0.3100     4.3540     0.2480 c3         1 EOQ       0.099000
     10 C16          0.8150     5.3620     0.1750 c3         1 EOQ       0.120400
     11 O13         -1.5810     1.9960     1.0000 o          1 EOQ      -0.644100
     12 N14          0.2060     3.0110     0.0830 ns         1 EOQ      -0.554900
     13 O17          1.4410     5.2410    -1.0840 oh         1 EOQ      -0.606800
     14 S1           4.0190    -0.6550     0.0630 sy         1 EOQ       1.300200
     15 O4           4.5540    -1.3270    -1.1100 o          1 EOQ      -0.622800
     16 O3           4.4220     0.7250     0.3040 o          1 EOQ      -0.622800
     17 CL1          2.2500    -3.3400    -0.4870 cl         1 EOQ      -0.071400
     18 N18         -1.9080    -0.5600     0.0730 nu         1 EOQ      -0.750600
     19 C19         -2.7370    -1.7320    -0.1220 c3         1 EOQ       0.272100
     20 C20         -4.1850    -1.3320    -0.0710 ca         1 EOQ      -0.121300
     21 C22         -4.8810    -1.3600     1.1330 ca         1 EOQ      -0.105000
     22 C25         -6.2070    -0.9510     1.1910 ca         1 EOQ      -0.129500
     23 C24         -6.8490    -0.5080     0.0420 ca         1 EOQ      -0.113000
     24 C23         -6.1600    -0.4760    -1.1640 ca         1 EOQ      -0.129500
     25 C21         -4.8340    -0.8840    -1.2180 ca         1 EOQ      -0.105000
     26 H1          -0.4210    -2.6890    -0.3700 ha         1 EOQ       0.151000
     27 H2           2.1620     1.4160     0.4480 ha         1 EOQ       0.158000
     28 H3           4.2620    -1.1540     2.2400 hn         1 EOQ       0.421300
     29 H4           5.2500    -2.0850     1.2630 hn         1 EOQ       0.421300
     30 H5          -0.7950     4.4420     1.2190 h1         1 EOQ       0.060700
     31 H6          -1.0660     4.5750    -0.5130 h1         1 EOQ       0.060700
     32 H7           0.3890     6.3610     0.3250 h1         1 EOQ       0.031700
     33 H8           1.5180     5.1810     0.9950 h1         1 EOQ       0.031700
     34 H9           0.9960     2.9050    -0.5340 hn         1 EOQ       0.334500
     35 H10          2.2520     5.7570    -1.0730 ho         1 EOQ       0.412000
     36 H11         -2.3460     0.2870     0.4060 hn         1 EOQ       0.483800
     37 H12         -2.5100    -2.1890    -1.0890 h1         1 EOQ       0.052200
     38 H13         -2.5310    -2.4850     0.6460 h1         1 EOQ       0.052200
     39 H14         -4.3860    -1.7080     2.0320 ha         1 EOQ       0.134000
     40 H15         -6.7390    -0.9790     2.1330 ha         1 EOQ       0.135000
     41 H16         -7.8830    -0.1930     0.0850 ha         1 EOQ       0.133000
     42 H17         -6.6550    -0.1360    -2.0640 ha         1 EOQ       0.135000
     43 H18         -4.3000    -0.8610    -2.1610 ha         1 EOQ       0.134000
@<TRIPOS>BOND
     1     1     2 ar  
     2     1     7 ar  
     3     1    17 1   
     4     2     3 ar  
     5     2    26 1   
     6     3     4 ar  
     7     3    18 1   
     8     4     5 ar  
     9     4     6 1   
    10     5     7 ar  
    11     5    27 1   
    12     6    11 2   
    13     6    12 1   
    14     7    14 1   
    15     8    14 1   
    16     8    28 1   
    17     8    29 1   
    18     9    10 1   
    19     9    12 1   
    20     9    30 1   
    21     9    31 1   
    22    10    13 1   
    23    10    32 1   
    24    10    33 1   
    25    12    34 1   
    26    13    35 1   
    27    14    15 2   
    28    14    16 2   
    29    18    19 1   
    30    18    36 1   
    31    19    20 1   
    32    19    37 1   
    33    19    38 1   
    34    20    21 ar  
    35    20    25 ar  
    36    21    22 ar  
    37    21    39 1   
    38    22    23 ar  
    39    22    40 1   
    40    23    24 ar  
    41    23    41 1   
    42    24    25 ar  
    43    24    42 1   
    44    25    43 1   
@<TRIPOS>SUBSTRUCTURE
     1 EOQ         1 TEMP              0 ****  ****    0 ROOT
