@<TRIPOS>MOLECULE
EOQ
   43    44     1     0     0
SMALL
No Charge or Current Charge


@<TRIPOS>ATOM
      1 C6           1.5960    -1.9420    -0.3430 ca         1 EOQ       0.292000
      2 C7           0.2010    -1.9160    -0.3850 ca         1 EOQ      -0.250000
      3 C8          -0.4980    -0.7070    -0.3850 ca         1 EOQ       0.449000
      4 C9           0.1950     0.5210    -0.3440 ca         1 EOQ      -0.275600
      5 C10          1.6100     0.4900    -0.3070 ca         1 EOQ       0.069000
      6 C12         -0.5450     1.8420    -0.3410 c          1 EOQ       0.625700
      7 C2           2.3110    -0.7320    -0.3090 ca         1 EOQ      -0.362500
      8 N5           4.4470    -1.2960     1.2010 n8         1 EOQ      -1.013100
      9 C15         -0.3370     4.3330     0.0140 c3         1 EOQ       0.099000
     10 C16          0.4160     5.2090     1.0420 c3         1 EOQ       0.143600
     11 O13         -1.7350     1.9400    -0.6110 o          1 EOQ      -0.644100
     12 N14          0.1920     2.9640    -0.0390 ns         1 EOQ      -0.487900
     13 O17          1.8370     5.1300     0.8330 oh         1 EOQ      -0.669000
     14 S1           4.0980    -0.7010    -0.2710 sy         1 EOQ       1.158600
     15 O4           4.6680    -1.6890    -1.1820 o          1 EOQ      -0.552000
     16 O3           4.5920     0.6720    -0.2210 o          1 EOQ      -0.552000
     17 Cl1          2.3700    -3.5290    -0.3200 cl         1 EOQ      -0.163000
     18 N18         -1.8820    -0.7460    -0.4240 nu         1 EOQ      -0.944200
     19 C19         -2.7430    -1.6790     0.3050 c3         1 EOQ       0.272100
     20 C20         -4.1880    -1.2220     0.1890 ca         1 EOQ      -0.121300
     21 C22         -4.7180    -0.2990     1.1140 ca         1 EOQ      -0.087000
     22 C25         -6.0540     0.1260     1.0050 ca         1 EOQ      -0.111500
     23 C24         -6.8680    -0.3680    -0.0280 ca         1 EOQ      -0.095000
     24 C23         -6.3450    -1.2860    -0.9540 ca         1 EOQ      -0.111500
     25 C21         -5.0090    -1.7120    -0.8470 ca         1 EOQ      -0.087000
     26 H1          -0.3380    -2.8560    -0.4210 ha         1 EOQ       0.133000
     27 H2           2.1800     1.4170    -0.2960 ha         1 EOQ       0.140000
     28 H3           5.1440    -0.6210     1.5070 hn         1 EOQ       0.476500
     29 H4           5.0210    -2.0920     0.9360 hn         1 EOQ       0.476500
     30 H5          -1.4020     4.3120     0.2800 h1         1 EOQ       0.060700
     31 H6          -0.2450     4.7830    -0.9830 h1         1 EOQ       0.060700
     32 H7           0.0690     6.2470     0.9510 h1         1 EOQ       0.031700
     33 H8           0.1650     4.8610     2.0530 h1         1 EOQ       0.031700
     34 H9           1.1650     2.8370     0.2040 hn         1 EOQ       0.334500
     35 H10          2.2590     5.7300     1.4880 ho         1 EOQ       0.451000
     36 H11         -2.2730     0.1990    -0.5350 hn         1 EOQ       0.539000
     37 H12         -2.6410    -2.6970    -0.0970 h1         1 EOQ       0.052200
     38 H13         -2.4560    -1.7090     1.3660 h1         1 EOQ       0.052200
     39 H14         -4.0930     0.0900     1.9150 ha         1 EOQ       0.116000
     40 H15         -6.4570     0.8380     1.7210 ha         1 EOQ       0.117000
     41 H16         -7.9010    -0.0390    -0.1120 ha         1 EOQ       0.115000
     42 H17         -6.9730    -1.6680    -1.7560 ha         1 EOQ       0.117000
     43 H18         -4.6100    -2.4200    -1.5700 ha         1 EOQ       0.116000
@<TRIPOS>BOND
     1     1     2 ar  
     2     1     7 ar  
     3     1    17 1   
     4     2     3 ar  
     5     2    26 1   
     6     3     4 ar  
     7     3    18 1   
     8     4     5 ar  
     9     4     6 1   
    10     5     7 ar  
    11     5    27 1   
    12     6    11 2   
    13     6    12 1   
    14     7    14 1   
    15     8    14 1   
    16     8    28 1   
    17     8    29 1   
    18     9    10 1   
    19     9    12 1   
    20     9    30 1   
    21     9    31 1   
    22    10    13 1   
    23    10    32 1   
    24    10    33 1   
    25    12    34 1   
    26    13    35 1   
    27    14    15 2   
    28    14    16 2   
    29    18    19 1   
    30    18    36 1   
    31    19    20 1   
    32    19    37 1   
    33    19    38 1   
    34    20    21 ar  
    35    20    25 ar  
    36    21    22 ar  
    37    21    39 1   
    38    22    23 ar  
    39    22    40 1   
    40    23    24 ar  
    41    23    41 1   
    42    24    25 ar  
    43    24    42 1   
    44    25    43 1   
@<TRIPOS>SUBSTRUCTURE
     1 EOQ         1 TEMP              0 ****  ****    0 ROOT
