@<TRIPOS>MOLECULE
EOR
   61    64     1     0     0
SMALL
No Charge or Current Charge


@<TRIPOS>ATOM
      1 C10          4.7950    31.4580    24.0300 ca         1 EOR       0.054100
      2 C11          3.9040    32.3420    24.6460 ca         1 EOR      -0.083000
      3 C12          4.4280    33.5100    25.2600 ca         1 EOR      -0.127000
      4 C14          2.0940    34.5940    24.8380 cc         1 EOR       0.345700
      5 C20         -0.7010    35.0070    21.3100 ca         1 EOR       0.400900
      6 C22          1.0890    34.9080    22.9070 ca         1 EOR      -0.006200
      7 C25          3.6050    37.1010    23.1110 c3         1 EOR       0.146800
      8 C27          2.3180    39.2270    22.8420 c3         1 EOR       0.169800
      9 C01          6.3940    36.1740    25.2610 c3         1 EOR       0.168100
     10 C03          7.3040    34.6710    27.0700 c3         1 EOR       0.168100
     11 C04          5.8370    33.7270    25.2750 ca         1 EOR       0.250000
     12 C05          6.6990    32.8000    24.6520 ca         1 EOR      -0.121000
     13 C06          6.1400    31.6800    24.0300 ca         1 EOR       0.063100
     14 C08          5.7560    29.8240    22.8940 c5         1 EOR       0.374600
     15 C16          0.1830    34.5560    23.8670 ca         1 EOR      -0.067600
     16 C17         -1.1760    34.4490    23.4860 ca         1 EOR       0.674900
     17 C21          0.6750    35.1500    21.5900 ca         1 EOR      -0.227000
     18 C28          0.9920    39.8310    22.2840 c3         1 EOR      -0.045000
     19 C29          0.9620    39.7550    20.7320 c3         1 EOR      -0.083433
     20 C30         -0.2390    39.0780    22.8640 c3         1 EOR      -0.083433
     21 C31          0.9140    41.3190    22.7120 c3         1 EOR      -0.083433
     22 N02          6.4000    34.8510    25.9160 nh         1 EOR      -0.768400
     23 N15          0.7970    34.3700    25.1180 nd         1 EOR      -0.506100
     24 N18         -2.1710    34.1070    24.3120 nv         1 EOR      -1.048900
     25 N19         -1.6240    34.6550    22.2470 nb         1 EOR      -0.784000
     26 N23          2.3160    34.9670    23.5050 na         1 EOR      -0.159600
     27 N26          2.4630    37.8020    22.4930 n7         1 EOR      -0.872400
     28 O07          6.8290    30.6930    23.4030 os         1 EOR      -0.343100
     29 O09          4.4610    30.2990    23.4070 os         1 EOR      -0.340100
     30 S13          3.3350    34.6820    26.0960 ss         1 EOR       0.076800
     31 H1           2.8410    32.1120    24.6520 ha         1 EOR       0.151000
     32 H2          -1.0780    35.1800    20.3030 h4         1 EOR       0.015100
     33 H3           4.5520    37.4710    22.6950 h1         1 EOR       0.042200
     34 H4           3.6250    37.2780    24.1950 h1         1 EOR       0.042200
     35 H5           3.1720    39.7970    22.4500 h1         1 EOR       0.028200
     36 H6           2.3220    39.3430    23.9340 h1         1 EOR       0.028200
     37 H7           5.5350    36.7670    25.6010 h1         1 EOR       0.036533
     38 H8           7.3140    36.7280    25.4910 h1         1 EOR       0.036533
     39 H9           6.3360    36.0630    24.1700 h1         1 EOR       0.036533
     40 H10          7.1840    35.4970    27.7840 h1         1 EOR       0.036533
     41 H11          7.0730    33.7350    27.5960 h1         1 EOR       0.036533
     42 H12          8.3500    34.6380    26.7390 h1         1 EOR       0.036533
     43 H13          7.7730    32.9520    24.6530 ha         1 EOR       0.137000
     44 H14          5.9280    28.7920    23.2220 h2         1 EOR       0.066200
     45 H15          1.3700    35.4380    20.8080 ha         1 EOR       0.139000
     46 H16          3.4740    35.3860    21.7880 h1         1 EOR       0.072700
     47 H17          4.4080    35.0960    23.2480 h1         1 EOR       0.072700
     48 H18          1.8340    40.2600    20.2990 hc         1 EOR       0.034589
     49 H19          0.9650    38.7150    20.3820 hc         1 EOR       0.034589
     50 H20          0.0600    40.2360    20.3350 hc         1 EOR       0.034589
     51 H21         -0.2230    39.0880    23.9610 hc         1 EOR       0.034589
     52 H22         -1.1740    39.5490    22.5370 hc         1 EOR       0.034589
     53 H23         -0.2640    38.0320    22.5350 hc         1 EOR       0.034589
     54 H24          0.9230    41.4140    23.8050 hc         1 EOR       0.034589
     55 H25          1.7660    41.8860    22.3170 hc         1 EOR       0.034589
     56 H26         -0.0060    41.7890    22.3410 hc         1 EOR       0.034589
     57 H27         -3.0020    33.7670    23.8460 hn         1 EOR       0.486500
     58 H28         -1.8960    33.6310    25.1630 hn         1 EOR       0.486500
     59 H29          1.6070    37.3240    22.7970 hn         1 EOR       0.422000
     60 H31          5.7460    29.8740    21.7990 h2         1 EOR       0.066200
     61 C24          3.5030    35.5780    22.8670 c3         1 EOR       0.073600
@<TRIPOS>BOND
     1     1     2 ar  
     2     1    13 ar  
     3     1    29 1   
     4     2     3 ar  
     5     2    31 1   
     6     3    11 ar  
     7     3    30 1   
     8     4    23 2   
     9     4    26 1   
    10     4    30 1   
    11     5    17 ar  
    12     5    25 ar  
    13     5    32 1   
    14     6    15 ar  
    15     6    17 ar  
    16     6    26 1   
    17     7    27 1   
    18     7    33 1   
    19     7    34 1   
    20     7    61 1   
    21     8    18 1   
    22     8    27 1   
    23     8    35 1   
    24     8    36 1   
    25     9    22 1   
    26     9    37 1   
    27     9    38 1   
    28     9    39 1   
    29    10    22 1   
    30    10    40 1   
    31    10    41 1   
    32    10    42 1   
    33    11    12 ar  
    34    11    22 1   
    35    12    13 ar  
    36    12    43 1   
    37    13    28 1   
    38    14    28 1   
    39    14    29 1   
    40    14    44 1   
    41    14    60 1   
    42    15    16 ar  
    43    15    23 1   
    44    16    24 1   
    45    16    25 ar  
    46    17    45 1   
    47    18    19 1   
    48    18    20 1   
    49    18    21 1   
    50    19    48 1   
    51    19    49 1   
    52    19    50 1   
    53    20    51 1   
    54    20    52 1   
    55    20    53 1   
    56    21    54 1   
    57    21    55 1   
    58    21    56 1   
    59    24    57 1   
    60    24    58 1   
    61    26    61 1   
    62    27    59 1   
    63    46    61 1   
    64    47    61 1   
@<TRIPOS>SUBSTRUCTURE
     1 EOR         1 TEMP              0 ****  ****    0 ROOT
