@<TRIPOS>MOLECULE
EOR
   61    64     1     0     0
SMALL
abcg2


@<TRIPOS>ATOM
      1 C10          5.0510    31.5940    23.7110 ca         1 EOR       0.054100
      2 C11          4.1020    32.4610    24.1890 ca         1 EOR      -0.083000
      3 C12          4.5520    33.4670    25.0540 ca         1 EOR      -0.127000
      4 C14          2.0730    34.5570    24.7470 cc         1 EOR       0.345700
      5 C20         -1.0890    34.8930    21.6610 ca         1 EOR       0.400900
      6 C22          0.8370    34.9200    22.9740 ca         1 EOR      -0.006200
      7 C25          3.2470    37.2530    23.1350 c3         1 EOR       0.146800
      8 C27          2.1400    39.3760    22.7660 c3         1 EOR       0.169800
      9 C01          6.5720    35.8720    25.6160 c3         1 EOR       0.168100
     10 C03          7.2070    34.2940    27.3250 c3         1 EOR       0.168100
     11 C04          5.8910    33.5840    25.4200 ca         1 EOR       0.250000
     12 C05          6.8350    32.6730    24.9180 ca         1 EOR      -0.121000
     13 C06          6.3840    31.6930    24.0720 ca         1 EOR       0.063100
     14 C08          6.1500    29.9040    22.7670 c5         1 EOR       0.374600
     15 C16          0.1180    34.2900    23.9860 ca         1 EOR      -0.067600
     16 C17         -1.2400    33.9750    23.7710 ca         1 EOR       0.674900
     17 C21          0.2360    35.2510    21.7530 ca         1 EOR      -0.227000
     18 C28          1.0080    40.1030    22.0290 c3         1 EOR      -0.045000
     19 C29          1.1120    39.8470    20.5250 c3         1 EOR      -0.083433
     20 C30         -0.3580    39.6340    22.5350 c3         1 EOR      -0.083433
     21 C31          1.1580    41.5990    22.3060 c3         1 EOR      -0.083433
     22 N02          6.2390    34.6350    26.3020 nh         1 EOR      -0.768400
     23 N15          0.9130    34.0690    25.0780 nd         1 EOR      -0.506100
     24 N18         -1.9850    33.4010    24.7460 nv         1 EOR      -1.048900
     25 N19         -1.8090    34.2790    22.6150 nb         1 EOR      -0.784000
     26 N23          2.0930    35.0890    23.4800 na         1 EOR      -0.159600
     27 N26          2.1010    37.9390    22.5810 n7         1 EOR      -0.872400
     28 O07          7.0910    30.7150    23.4600 os         1 EOR      -0.343100
     29 O09          4.8850    30.5480    22.8690 os         1 EOR      -0.340100
     30 S13          3.4480    34.6300    25.8240 ss         1 EOR       0.076800
     31 H1           3.0600    32.3480    23.9240 ha         1 EOR       0.151000
     32 H2          -1.6310    35.1160    20.7480 h4         1 EOR       0.015100
     33 H3           4.1520    37.6490    22.6670 h1         1 EOR       0.042200
     34 H4           3.3700    37.3970    24.2200 h1         1 EOR       0.042200
     35 H5           3.0970    39.7390    22.3760 h1         1 EOR       0.028200
     36 H6           2.1140    39.6610    23.8310 h1         1 EOR       0.028200
     37 H7           6.6210    36.6890    26.3370 h1         1 EOR       0.036533
     38 H8           7.5350    35.8200    25.0900 h1         1 EOR       0.036533
     39 H9           5.8000    36.1210    24.8880 h1         1 EOR       0.036533
     40 H10          7.2260    35.0850    28.0750 h1         1 EOR       0.036533
     41 H11          6.9190    33.3680    27.8190 h1         1 EOR       0.036533
     42 H12          8.2320    34.1790    26.9460 h1         1 EOR       0.036533
     43 H13          7.8810    32.7440    25.1890 ha         1 EOR       0.137000
     44 H14          6.0990    28.9140    23.2300 h2         1 EOR       0.066200
     45 H15          0.7470    35.7590    20.9490 ha         1 EOR       0.139000
     46 H16          3.1070    35.6040    21.7560 h1         1 EOR       0.072700
     47 H17          4.1300    35.2900    23.1420 h1         1 EOR       0.072700
     48 H18          2.0740    40.1870    20.1330 hc         1 EOR       0.034589
     49 H19          1.0170    38.7850    20.2980 hc         1 EOR       0.034589
     50 H20          0.3260    40.3800    19.9850 hc         1 EOR       0.034589
     51 H21         -0.4550    39.7720    23.6150 hc         1 EOR       0.034589
     52 H22         -1.1590    40.2010    22.0560 hc         1 EOR       0.034589
     53 H23         -0.5410    38.5810    22.3120 hc         1 EOR       0.034589
     54 H24          1.0830    41.8170    23.3740 hc         1 EOR       0.034589
     55 H25          2.1250    41.9730    21.9580 hc         1 EOR       0.034589
     56 H26          0.3800    42.1720    21.7970 hc         1 EOR       0.034589
     57 H27         -2.8620    32.9890    24.4790 hn         1 EOR       0.486500
     58 H28         -1.5080    32.9500    25.5080 hn         1 EOR       0.486500
     59 H29          1.2560    37.5790    23.0070 hn         1 EOR       0.422000
     60 H31          6.4370    29.8200    21.7180 h2         1 EOR       0.066200
     61 C24          3.2020    35.7660    22.8300 c3         1 EOR       0.073600
@<TRIPOS>BOND
     1     1     2 ar  
     2     1    13 ar  
     3     1    29 1   
     4     2     3 ar  
     5     2    31 1   
     6     3    11 ar  
     7     3    30 1   
     8     4    23 2   
     9     4    26 1   
    10     4    30 1   
    11     5    17 ar  
    12     5    25 ar  
    13     5    32 1   
    14     6    15 ar  
    15     6    17 ar  
    16     6    26 1   
    17     7    27 1   
    18     7    33 1   
    19     7    34 1   
    20     7    61 1   
    21     8    18 1   
    22     8    27 1   
    23     8    35 1   
    24     8    36 1   
    25     9    22 1   
    26     9    37 1   
    27     9    38 1   
    28     9    39 1   
    29    10    22 1   
    30    10    40 1   
    31    10    41 1   
    32    10    42 1   
    33    11    12 ar  
    34    11    22 1   
    35    12    13 ar  
    36    12    43 1   
    37    13    28 1   
    38    14    28 1   
    39    14    29 1   
    40    14    44 1   
    41    14    60 1   
    42    15    16 ar  
    43    15    23 1   
    44    16    24 1   
    45    16    25 ar  
    46    17    45 1   
    47    18    19 1   
    48    18    20 1   
    49    18    21 1   
    50    19    48 1   
    51    19    49 1   
    52    19    50 1   
    53    20    51 1   
    54    20    52 1   
    55    20    53 1   
    56    21    54 1   
    57    21    55 1   
    58    21    56 1   
    59    24    57 1   
    60    24    58 1   
    61    26    61 1   
    62    27    59 1   
    63    46    61 1   
    64    47    61 1   
@<TRIPOS>SUBSTRUCTURE
     1 EOR         1 TEMP              0 ****  ****    0 ROOT
