@<TRIPOS>MOLECULE
EOS
   52    55     1     0     0
SMALL
No Charge or Current Charge


@<TRIPOS>ATOM
      1 C4           1.3220    -1.4410    -0.1480 ca         1 EOS      -0.057000
      2 C5           1.6710    -2.7900     0.0850 ca         1 EOS      -0.128600
      3 C6           3.0360    -3.1500     0.0230 ca         1 EOS      -0.095000
      4 C8           4.3280     1.2610    -1.1910 cc         1 EOS       0.447300
      5 C17         -0.4090     1.2090     0.1440 ca         1 EOS      -0.071900
      6 C20         -2.8900     0.4750     1.2830 ca         1 EOS      -0.176000
      7 C21         -1.7130     0.4110     2.0490 ca         1 EOS      -0.061000
      8 C22         -0.4790     0.7830     1.4900 ca         1 EOS       0.093000
      9 C26         -6.2800     0.9110    -1.5260 c3         1 EOS      -0.063700
     10 C28         -7.6820     0.3810    -1.1480 c3         1 EOS      -0.088600
     11 C1           4.0100    -2.1910    -0.2930 ca         1 EOS      -0.069000
     12 C18         -1.5990     1.2990    -0.6080 ca         1 EOS      -0.104000
     13 C2           3.6690    -0.8490    -0.5320 ca         1 EOS       0.255000
     14 C3           2.3070    -0.4610    -0.4130 ca         1 EOS      -0.053000
     15 C19         -2.8340     0.9280    -0.0530 ca         1 EOS       0.157100
     16 C16          0.8570     1.6190    -0.4640 cc         1 EOS       0.395400
     17 C9           2.9780     1.7330    -1.0660 cc         1 EOS      -0.175000
     18 C11          0.5790    -3.7980     0.3890 c          1 EOS       0.609700
     19 C12          5.3660     2.2450    -1.6540 c3         1 EOS      -0.148400
     20 C27         -6.3460     2.3960    -1.9580 c3         1 EOS      -0.088600
     21 C30          0.0600    -6.2020     0.9130 c3         1 EOS       0.093300
     22 C25         -5.2670     0.6740    -0.3790 c3         1 EOS       0.164600
     23 N15          1.1010     2.8400    -0.9250 nd         1 EOS      -0.348700
     24 N14          2.4360     2.9160    -1.2910 nd         1 EOS      -0.063000
     25 N7           4.7260     0.0170    -0.9100 nd         1 EOS      -0.666000
     26 N10          2.0200     0.8900    -0.6190 na         1 EOS       0.033200
     27 N29          0.9750    -5.1000     0.6070 ns         1 EOS      -0.500900
     28 O13         -0.6030    -3.4840     0.4410 o          1 EOS      -0.599100
     29 O24         -3.9550     1.0260    -0.8510 os         1 EOS      -0.340100
     30 Cl3          0.9570     0.7360     2.5140 cl         1 EOS      -0.189000
     31 H1           0.2700    -1.1790    -0.1310 ha         1 EOS       0.160000
     32 H2           3.3610    -4.1730     0.1940 ha         1 EOS       0.118000
     33 H3          -3.8290     0.1810     1.7430 ha         1 EOS       0.125000
     34 H4          -1.7580     0.0790     3.0840 ha         1 EOS       0.132000
     35 H5          -5.9370     0.3280    -2.3910 hc         1 EOS       0.062700
     36 H6          -8.0850     0.9220    -0.2830 hc         1 EOS       0.038033
     37 H7          -8.3810     0.5010    -1.9850 hc         1 EOS       0.038033
     38 H8          -7.6390    -0.6860    -0.8960 hc         1 EOS       0.038033
     39 H9           5.0510    -2.4950    -0.3680 ha         1 EOS       0.140000
     40 H10         -1.5670     1.6490    -1.6370 ha         1 EOS       0.144000
     41 H11          6.3580     1.7840    -1.7220 hc         1 EOS       0.068367
     42 H12          5.1090     2.6380    -2.6440 hc         1 EOS       0.068367
     43 H13          5.4340     3.0880    -0.9580 hc         1 EOS       0.068367
     44 H14         -6.6640     3.0320    -1.1230 hc         1 EOS       0.038033
     45 H15         -5.3680     2.7490    -2.3060 hc         1 EOS       0.038033
     46 H16         -7.0600     2.5280    -2.7800 hc         1 EOS       0.038033
     47 H17          0.6330    -7.1300     1.0400 h1         1 EOS       0.042700
     48 H18         -0.4850    -5.9840     1.8400 h1         1 EOS       0.042700
     49 H19         -0.6550    -6.3290     0.0900 h1         1 EOS       0.042700
     50 H20         -5.5460     1.2860     0.4890 h1         1 EOS       0.037700
     51 H21         -5.2940    -0.3830    -0.0830 h1         1 EOS       0.037700
     52 H22          1.9660    -5.2960     0.5500 hn         1 EOS       0.317500
@<TRIPOS>BOND
     1     1     2 ar  
     2     1    14 ar  
     3     1    31 1   
     4     2     3 ar  
     5     2    18 1   
     6     3    11 ar  
     7     3    32 1   
     8     4    17 1   
     9     4    19 1   
    10     4    25 2   
    11     5     8 ar  
    12     5    12 ar  
    13     5    16 1   
    14     6     7 ar  
    15     6    15 ar  
    16     6    33 1   
    17     7     8 ar  
    18     7    34 1   
    19     8    30 1   
    20     9    10 1   
    21     9    20 1   
    22     9    22 1   
    23     9    35 1   
    24    10    36 1   
    25    10    37 1   
    26    10    38 1   
    27    11    13 ar  
    28    11    39 1   
    29    12    15 ar  
    30    12    40 1   
    31    13    14 ar  
    32    13    25 1   
    33    14    26 1   
    34    15    29 1   
    35    16    23 2   
    36    16    26 1   
    37    17    24 2   
    38    17    26 1   
    39    18    27 1   
    40    18    28 2   
    41    19    41 1   
    42    19    42 1   
    43    19    43 1   
    44    20    44 1   
    45    20    45 1   
    46    20    46 1   
    47    21    27 1   
    48    21    47 1   
    49    21    48 1   
    50    21    49 1   
    51    22    29 1   
    52    22    50 1   
    53    22    51 1   
    54    23    24 1   
    55    27    52 1   
@<TRIPOS>SUBSTRUCTURE
     1 EOS         1 TEMP              0 ****  ****    0 ROOT
