@<TRIPOS>MOLECULE
EOS
   52    55     1     0     0
SMALL
abcg2


@<TRIPOS>ATOM
      1 C4           1.2420    -1.4080    -0.0800 ca         1 EOS      -0.057000
      2 C5           1.5620    -2.7550    -0.0610 ca         1 EOS      -0.128600
      3 C6           2.8530    -3.1650    -0.4120 ca         1 EOS      -0.095000
      4 C8           4.2430     1.2660    -1.2410 cc         1 EOS       0.447300
      5 C17         -0.3940     1.2710     0.3480 ca         1 EOS      -0.071900
      6 C20         -2.8800     0.5150     1.3410 ca         1 EOS      -0.176000
      7 C21         -1.7660     0.5040     2.1690 ca         1 EOS      -0.061000
      8 C22         -0.5310     0.8810     1.6800 ca         1 EOS       0.093000
      9 C26         -6.0370     0.7320    -1.5990 c3         1 EOS      -0.063700
     10 C28         -7.4080     0.2170    -1.1680 c3         1 EOS      -0.088600
     11 C1           3.8040    -2.2360    -0.7690 ca         1 EOS      -0.069000
     12 C18         -1.5060     1.2920    -0.4750 ca         1 EOS      -0.104000
     13 C2           3.5050    -0.8710    -0.7860 ca         1 EOS       0.255000
     14 C3           2.2070    -0.4720    -0.4210 ca         1 EOS      -0.053000
     15 C19         -2.7590     0.9110     0.0110 ca         1 EOS       0.157100
     16 C16          0.9060     1.6980    -0.1810 cc         1 EOS       0.395400
     17 C9           2.9430     1.7640    -0.8820 cc         1 EOS      -0.175000
     18 C11          0.4640    -3.7050     0.3090 c          1 EOS       0.609700
     19 C12          5.2810     2.2350    -1.6850 c3         1 EOS      -0.148400
     20 C27         -6.1220     2.1810    -2.0650 c3         1 EOS      -0.088600
     21 C30         -0.1340    -5.9410     1.0620 c3         1 EOS       0.093300
     22 C25         -5.0700     0.5650    -0.4410 c3         1 EOS       0.164600
     23 N15          1.2230     2.9420    -0.4390 nd         1 EOS      -0.348700
     24 N14          2.4900     2.9900    -0.8740 nd         1 EOS      -0.063000
     25 N7           4.4940     0.0050    -1.1770 nd         1 EOS      -0.666000
     26 N10          1.9740     0.9010    -0.4600 na         1 EOS       0.033200
     27 N29          0.8320    -4.9380     0.6770 ns         1 EOS      -0.500900
     28 O13         -0.7070    -3.3500     0.2740 o          1 EOS      -0.599100
     29 O24         -3.7700     0.9530    -0.8660 os         1 EOS      -0.340100
     30 CL3          0.8580     0.8540     2.7110 cl         1 EOS      -0.189000
     31 H1           0.2350    -1.1120     0.1670 ha         1 EOS       0.160000
     32 H2           3.1240    -4.2120    -0.4390 ha         1 EOS       0.118000
     33 H3          -3.8290     0.2110     1.7570 ha         1 EOS       0.125000
     34 H4          -1.8730     0.1990     3.2010 ha         1 EOS       0.132000
     35 H5          -5.6830     0.1120    -2.4300 hc         1 EOS       0.062700
     36 H6          -7.7980     0.8000    -0.3310 hc         1 EOS       0.038033
     37 H7          -8.1230     0.2960    -1.9870 hc         1 EOS       0.038033
     38 H8          -7.3700    -0.8290    -0.8600 hc         1 EOS       0.038033
     39 H9           4.7980    -2.5470    -1.0610 ha         1 EOS       0.140000
     40 H10         -1.4020     1.5930    -1.5100 ha         1 EOS       0.144000
     41 H11          6.2310     1.7290    -1.8310 hc         1 EOS       0.068367
     42 H12          4.9840     2.7080    -2.6230 hc         1 EOS       0.068367
     43 H13          5.4070     3.0320    -0.9520 hc         1 EOS       0.068367
     44 H14         -6.4690     2.8280    -1.2540 hc         1 EOS       0.038033
     45 H15         -5.1610     2.5620    -2.4100 hc         1 EOS       0.038033
     46 H16         -6.8300     2.2800    -2.8900 hc         1 EOS       0.038033
     47 H17          0.3900    -6.8800     1.2100 h1         1 EOS       0.042700
     48 H18         -0.6450    -5.6800     1.9900 h1         1 EOS       0.042700
     49 H19         -0.8840    -6.0830     0.2850 h1         1 EOS       0.042700
     50 H20         -5.3930     1.1850     0.4050 h1         1 EOS       0.037700
     51 H21         -5.0560    -0.4770    -0.1030 h1         1 EOS       0.037700
     52 H22          1.8050    -5.1600     0.8010 hn         1 EOS       0.317500
@<TRIPOS>BOND
     1     1     2 ar  
     2     1    14 ar  
     3     1    31 1   
     4     2     3 ar  
     5     2    18 1   
     6     3    11 ar  
     7     3    32 1   
     8     4    17 1   
     9     4    19 1   
    10     4    25 2   
    11     5     8 ar  
    12     5    12 ar  
    13     5    16 1   
    14     6     7 ar  
    15     6    15 ar  
    16     6    33 1   
    17     7     8 ar  
    18     7    34 1   
    19     8    30 1   
    20     9    10 1   
    21     9    20 1   
    22     9    22 1   
    23     9    35 1   
    24    10    36 1   
    25    10    37 1   
    26    10    38 1   
    27    11    13 ar  
    28    11    39 1   
    29    12    15 ar  
    30    12    40 1   
    31    13    14 ar  
    32    13    25 1   
    33    14    26 1   
    34    15    29 1   
    35    16    23 2   
    36    16    26 1   
    37    17    24 2   
    38    17    26 1   
    39    18    27 1   
    40    18    28 2   
    41    19    41 1   
    42    19    42 1   
    43    19    43 1   
    44    20    44 1   
    45    20    45 1   
    46    20    46 1   
    47    21    27 1   
    48    21    47 1   
    49    21    48 1   
    50    21    49 1   
    51    22    29 1   
    52    22    50 1   
    53    22    51 1   
    54    23    24 1   
    55    27    52 1   
@<TRIPOS>SUBSTRUCTURE
     1 EOS         1 TEMP              0 ****  ****    0 ROOT
