@<TRIPOS>MOLECULE
EOT
   58    58     1     0     0
SMALL
bcc


@<TRIPOS>ATOM
      1 C15          0.2280    -0.3910     2.8890 ca         1 EOT      -0.048400
      2 C16         -1.0750    -0.5530     2.4820 ca         1 EOT      -0.135500
      3 C17         -1.3720    -0.7140     1.1280 ca         1 EOT      -0.089500
      4 C12         -0.3640    -0.7000     0.1720 ca         1 EOT       0.029700
      5 C13          0.9490    -0.5280     0.6010 ca         1 EOT      -0.089500
      6 C14          1.2400    -0.3850     1.9520 ca         1 EOT      -0.135500
      7 N3           0.5520    -0.1390     4.2330 ns         1 EOT      -0.355100
      8 C18          0.2460    -0.8980     5.3060 cs         1 EOT       0.605400
      9 S1          -0.5300    -2.3870     5.1930 s          1 EOT      -0.746400
     10 N4           0.6440    -0.3890     6.4720 ns         1 EOT      -0.550900
     11 C19          0.3890    -0.9730     7.7640 c3         1 EOT       0.112000
     12 C20          1.4010    -0.4790     8.7770 c3         1 EOT       0.111400
     13 O9           1.2970     0.9290     8.8760 oh         1 EOT      -0.598800
     14 C11         -0.6500    -0.8550    -1.2930 c3         1 EOT      -0.040100
     15 C1          -0.6850     0.4770    -2.0430 c3         1 EOT       0.203500
     16 C2          -0.7160     0.2540    -3.5630 c3         1 EOT       0.149800
     17 N1          -1.7330     1.3870    -1.5850 n3         1 EOT      -0.679600
     18 C9          -1.3530     2.7770    -1.8050 c3         1 EOT       0.047800
     19 C10         -0.1830     3.3090    -0.9830 c          1 EOT       0.933100
     20 O7           0.0560     2.7330     0.1080 o          1 EOT      -0.865800
     21 O8           0.4080     4.2930    -1.3910 o          1 EOT      -0.865800
     22 C7          -3.0610     1.1440    -2.1720 c3         1 EOT       0.047800
     23 C8          -3.7360    -0.2170    -1.8220 c          1 EOT       0.933100
     24 O5          -4.0900    -0.3780    -0.6440 o          1 EOT      -0.865800
     25 O6          -3.9260    -1.0000    -2.7720 o          1 EOT      -0.865800
     26 N2           0.4990    -0.3210    -4.1390 n3         1 EOT      -0.684600
     27 C5           0.2530    -0.7460    -5.4910 c3         1 EOT       0.067800
     28 C6           1.3600    -1.5360    -6.2100 c          1 EOT       0.943100
     29 O3           2.3750    -1.8810    -5.5940 o          1 EOT      -0.874550
     30 O4           1.0810    -1.7900    -7.4070 o          1 EOT      -0.874550
     31 C3           1.6240     0.5440    -3.9710 c3         1 EOT       0.067800
     32 C4           2.8240     0.0040    -3.1520 c          1 EOT       0.943100
     33 O1           2.6380    -0.9050    -2.3420 o          1 EOT      -0.874550
     34 O2           3.9110     0.6140    -3.3250 o          1 EOT      -0.874550
     35 H16         -1.8770    -0.5440     3.2100 ha         1 EOT       0.097000
     36 H17         -2.3990    -0.8220     0.8070 ha         1 EOT       0.193500
     37 H13          1.7520    -0.5210    -0.1380 ha         1 EOT       0.193500
     38 H14          2.2630    -0.2720     2.2940 ha         1 EOT       0.097000
     39 HN3          1.1850     0.6320     4.3870 hn         1 EOT       0.294500
     40 HN4          1.0130     0.5640     6.4820 hn         1 EOT       0.304500
     41 H191         0.4650    -2.0850     7.6850 h1         1 EOT       0.065200
     42 H192        -0.6510    -0.7460     8.1110 h1         1 EOT       0.065200
     43 H201         2.4370    -0.7890     8.4420 h1         1 EOT       0.018700
     44 H202         1.1940    -0.9700     9.7600 h1         1 EOT       0.018700
     45 HO9          2.0520     1.2510     9.4000 ho         1 EOT       0.389000
     46 H111         0.1590    -1.4230    -1.7490 hc         1 EOT       0.078200
     47 H112        -1.5670    -1.4160    -1.4470 hc         1 EOT       0.078200
     48 H1           0.2570     0.9600    -1.7830 h1         1 EOT       0.089700
     49 H21         -1.5220    -0.3950    -3.8050 h1         1 EOT       0.009200
     50 H22         -0.9660     1.2160    -4.0570 h1         1 EOT       0.009200
     51 H91         -1.1680     2.9630    -2.8780 h1         1 EOT      -0.014550
     52 H92         -2.1780     3.4450    -1.5760 h1         1 EOT      -0.014550
     53 H71         -3.7060     1.9350    -1.7850 h1         1 EOT      -0.014550
     54 H72         -3.0040     1.2810    -3.2600 h1         1 EOT      -0.014550
     55 H51         -0.6430    -1.3790    -5.4740 h1         1 EOT      -0.006800
     56 H52          0.0220     0.1020    -6.1750 h1         1 EOT      -0.006800
     57 H31          1.9980     0.9330    -4.9660 h1         1 EOT      -0.006800
     58 H32          1.3070     1.4570    -3.4490 h1         1 EOT      -0.006800
@<TRIPOS>BOND
     1     1     2 ar  
     2     1     6 ar  
     3     1     7 1   
     4     2     3 ar  
     5     2    35 1   
     6     3     4 ar  
     7     3    36 1   
     8     4     5 ar  
     9     4    14 1   
    10     5     6 ar  
    11     5    37 1   
    12     6    38 1   
    13     7     8 1   
    14     7    39 1   
    15     8     9 2   
    16     8    10 1   
    17    10    11 1   
    18    10    40 1   
    19    11    12 1   
    20    11    41 1   
    21    11    42 1   
    22    12    13 1   
    23    12    43 1   
    24    12    44 1   
    25    13    45 1   
    26    14    15 1   
    27    14    46 1   
    28    14    47 1   
    29    15    16 1   
    30    15    17 1   
    31    15    48 1   
    32    16    26 1   
    33    16    49 1   
    34    16    50 1   
    35    17    18 1   
    36    17    22 1   
    37    18    19 1   
    38    18    51 1   
    39    18    52 1   
    40    19    20 1   
    41    19    21 1   
    42    22    23 1   
    43    22    53 1   
    44    22    54 1   
    45    23    24 1   
    46    23    25 1   
    47    26    27 1   
    48    26    31 1   
    49    27    28 1   
    50    27    55 1   
    51    27    56 1   
    52    28    29 1   
    53    28    30 1   
    54    31    32 1   
    55    31    57 1   
    56    31    58 1   
    57    32    33 1   
    58    32    34 1   
@<TRIPOS>SUBSTRUCTURE
     1 EOT         1 TEMP              0 ****  ****    0 ROOT
