@<TRIPOS>MOLECULE
EOT
   58    58     1     0     0
SMALL
No Charge or Current Charge


@<TRIPOS>ATOM
      1 C15          0.1560    -0.4860     3.0120 ca         1 EOT      -0.048400
      2 C16         -0.8910    -1.2540     2.4660 ca         1 EOT      -0.117500
      3 C17         -1.0700    -1.3260     1.0730 ca         1 EOT      -0.071500
      4 C12         -0.2160    -0.6220     0.2020 ca         1 EOT       0.029700
      5 C13          0.8260     0.1530     0.7510 ca         1 EOT      -0.071500
      6 C14          1.0020     0.2260     2.1440 ca         1 EOT      -0.117500
      7 N3           0.3730    -0.3620     4.4100 ns         1 EOT      -0.288100
      8 C18          0.0740    -1.1470     5.4960 cs         1 EOT       0.471400
      9 S1          -0.5500    -2.7020     5.4540 s          1 EOT      -0.746400
     10 N4           0.4200    -0.5290     6.6630 ns         1 EOT      -0.483900
     11 C19          0.2790    -1.0790     8.0170 c3         1 EOT       0.112000
     12 C20          1.1550    -0.3320     9.0520 c3         1 EOT       0.134600
     13 O9           0.9120     1.0840     9.0060 oh         1 EOT      -0.661000
     14 C11         -0.3950    -0.7310    -1.3130 c3         1 EOT      -0.040100
     15 C1          -0.5370     0.6350    -2.0450 c3         1 EOT       0.203500
     16 C2          -0.5960     0.4480    -3.6060 c3         1 EOT       0.149800
     17 N1          -1.6210     1.5260    -1.4850 n3         1 EOT      -0.679600
     18 C9          -1.3820     2.9870    -1.7650 c3         1 EOT       0.047800
     19 C10         -0.0530     3.6600    -1.2420 c          1 EOT       0.722500
     20 O7          -0.0130     4.0690    -0.0880 o          1 EOT      -0.760500
     21 O8           0.8910     3.7740    -2.0150 o          1 EOT      -0.760500
     22 C7          -3.0410     1.1330    -1.8190 c3         1 EOT       0.047800
     23 C8          -3.6470    -0.2360    -1.3210 c          1 EOT       0.722500
     24 O5          -4.0190    -0.3270    -0.1570 o          1 EOT      -0.760500
     25 O6          -3.8090    -1.1370    -2.1360 o          1 EOT      -0.760500
     26 N2           0.5180    -0.3120    -4.2540 n3         1 EOT      -0.684600
     27 C5           0.1870    -0.6490    -5.6860 c3         1 EOT       0.067800
     28 C6           0.9860    -1.7840    -6.4410 c          1 EOT       0.732500
     29 O3           0.9210    -2.9350    -6.0220 o          1 EOT      -0.769250
     30 O4           1.5610    -1.5000    -7.4860 o          1 EOT      -0.769250
     31 C3           1.8620     0.3580    -4.0960 c3         1 EOT       0.067800
     32 C4           3.1810    -0.3940    -4.5310 c          1 EOT       0.732500
     33 O1           3.5390    -1.3790    -3.8930 o          1 EOT      -0.769250
     34 O2           3.8640     0.0910    -5.4270 o          1 EOT      -0.769250
     35 H16         -1.5880    -1.7840     3.1070 ha         1 EOT       0.079000
     36 H17         -1.8820    -1.9270     0.6700 ha         1 EOT       0.175500
     37 H13          1.5060     0.6980     0.1000 ha         1 EOT       0.175500
     38 H14          1.8100     0.8330     2.5460 ha         1 EOT       0.079000
     39 HN3          0.8360     0.5030     4.6550 hn         1 EOT       0.294500
     40 HN4          0.7870     0.4140     6.6050 hn         1 EOT       0.304500
     41 H191         0.5670    -2.1380     8.0130 h1         1 EOT       0.065200
     42 H192        -0.7750    -1.0140     8.3170 h1         1 EOT       0.065200
     43 H201         2.2120    -0.5370     8.8350 h1         1 EOT       0.018700
     44 H202         0.9380    -0.7260    10.0540 h1         1 EOT       0.018700
     45 HO9          1.4790     1.4950     9.6950 ho         1 EOT       0.428000
     46 H111         0.4810    -1.2500    -1.7180 hc         1 EOT       0.078200
     47 H112        -1.2420    -1.3740    -1.5630 hc         1 EOT       0.078200
     48 H1           0.4140     1.1450    -1.8530 h1         1 EOT       0.089700
     49 H21         -1.5400    -0.0650    -3.8320 h1         1 EOT       0.009200
     50 H22         -0.6620     1.4390    -4.0740 h1         1 EOT       0.009200
     51 H91         -1.4380     3.1590    -2.8480 h1         1 EOT      -0.014550
     52 H92         -2.2080     3.5650    -1.3280 h1         1 EOT      -0.014550
     53 H71         -3.7090     1.9070    -1.4140 h1         1 EOT      -0.014550
     54 H72         -3.1770     1.1800    -2.9080 h1         1 EOT      -0.014550
     55 H51         -0.8650    -0.9600    -5.7360 h1         1 EOT      -0.006800
     56 H52          0.2560     0.2680    -6.2870 h1         1 EOT      -0.006800
     57 H31          1.8370     1.3180    -4.6300 h1         1 EOT      -0.006800
     58 H32          2.0170     0.6060    -3.0390 h1         1 EOT      -0.006800
@<TRIPOS>BOND
     1     1     2 ar  
     2     1     6 ar  
     3     1     7 1   
     4     2     3 ar  
     5     2    35 1   
     6     3     4 ar  
     7     3    36 1   
     8     4     5 ar  
     9     4    14 1   
    10     5     6 ar  
    11     5    37 1   
    12     6    38 1   
    13     7     8 1   
    14     7    39 1   
    15     8     9 2   
    16     8    10 1   
    17    10    11 1   
    18    10    40 1   
    19    11    12 1   
    20    11    41 1   
    21    11    42 1   
    22    12    13 1   
    23    12    43 1   
    24    12    44 1   
    25    13    45 1   
    26    14    15 1   
    27    14    46 1   
    28    14    47 1   
    29    15    16 1   
    30    15    17 1   
    31    15    48 1   
    32    16    26 1   
    33    16    49 1   
    34    16    50 1   
    35    17    18 1   
    36    17    22 1   
    37    18    19 1   
    38    18    51 1   
    39    18    52 1   
    40    19    20 1   
    41    19    21 1   
    42    22    23 1   
    43    22    53 1   
    44    22    54 1   
    45    23    24 1   
    46    23    25 1   
    47    26    27 1   
    48    26    31 1   
    49    27    28 1   
    50    27    55 1   
    51    27    56 1   
    52    28    29 1   
    53    28    30 1   
    54    31    32 1   
    55    31    57 1   
    56    31    58 1   
    57    32    33 1   
    58    32    34 1   
@<TRIPOS>SUBSTRUCTURE
     1 EOT         1 TEMP              0 ****  ****    0 ROOT
