@<TRIPOS>MOLECULE
EOV
  196   196     1     0     0
SMALL
abcg2


@<TRIPOS>ATOM
      1 N           -4.3020     3.0320    -0.6330 n          1 EOV      -0.382800
      2 CN          -5.3320     3.4180    -1.5930 c3         1 EOV       0.076300
      3 CA          -3.2500     4.0320    -0.4890 c3         1 EOV      -0.015300
      4 C           -2.2550     3.8990    -1.6530 c          1 EOV       0.598100
      5 O           -2.1020     2.8500    -2.2520 o          1 EOV      -0.586100
      6 CB          -2.5160     4.1520     0.8700 c3         1 EOV       0.195300
      7 OG1         -1.4540     3.2580     1.0020 oh         1 EOV      -0.670000
      8 CG2         -3.4760     4.1460     2.0760 c3         1 EOV      -0.086700
      9 CD1         -4.5720     5.1980     1.9350 c3         1 EOV      -0.089100
     10 CD2         -2.6680     4.3710     3.3670 c3         1 EOV      -0.035200
     11 CE          -3.4780     4.2050     4.6150 c2         1 EOV      -0.224200
     12 CZ          -3.3050     3.2210     5.4940 c2         1 EOV      -0.216200
     13 CH          -4.1110     3.0260     6.7370 c3         1 EOV      -0.056900
     14 N1          -1.6330     5.0490    -1.9590 ns         1 EOV      -0.494900
     15 CA1         -0.6000     5.1840    -2.9620 c3         1 EOV       0.040700
     16 C1           0.5060     6.0330    -2.3310 c          1 EOV       0.605100
     17 O1           0.1910     7.0130    -1.6700 o          1 EOV      -0.630100
     18 CB1         -1.1170     5.8500    -4.2410 c3         1 EOV      -0.089400
     19 CG          -2.2330     5.0660    -4.9150 c3         1 EOV      -0.084100
     20 N2           1.7860     5.6540    -2.5250 n          1 EOV      -0.391800
     21 CA2          2.8320     6.1250    -1.6330 c3         1 EOV       0.026000
     22 C2           3.2180     4.9650    -0.7080 c          1 EOV       0.578100
     23 O2           4.1350     4.2290    -1.0480 o          1 EOV      -0.609100
     24 CN1          2.1700     4.6470    -3.5000 c3         1 EOV       0.083300
     25 N3           2.4890     4.7170     0.4080 n          1 EOV      -0.373800
     26 CN2          1.3400     5.5070     0.8110 c3         1 EOV       0.074300
     27 CA3          2.5770     3.3530     0.9150 c3         1 EOV       0.027700
     28 CB2          1.9980     3.1910     2.3210 c3         1 EOV      -0.085400
     29 CG1          2.7690     3.9240     3.4230 c3         1 EOV      -0.060700
     30 CD11         1.9650     3.8830     4.7180 c3         1 EOV      -0.090100
     31 CD21         4.1570     3.3260     3.6330 c3         1 EOV      -0.090100
     32 C3           1.8690     2.4300    -0.0910 c          1 EOV       0.598100
     33 O3           1.1460     2.8840    -0.9580 o          1 EOV      -0.600100
     34 N4           2.0530     1.0970     0.0230 ns         1 EOV      -0.498900
     35 CA4          2.9730     0.3490     0.8450 c3         1 EOV       0.059700
     36 C4           3.9240    -0.4050    -0.0960 c          1 EOV       0.587100
     37 O4           3.4580    -0.8350    -1.1450 o          1 EOV      -0.603100
     38 CB3          2.1910    -0.6150     1.7770 c3         1 EOV      -0.068700
     39 CG11         1.3250    -1.6220     1.0280 c3         1 EOV      -0.093100
     40 CG21         3.0870    -1.3200     2.7880 c3         1 EOV      -0.093100
     41 N5           5.2160    -0.6020     0.2430 n          1 EOV      -0.400800
     42 CN3          5.8560    -0.1360     1.4580 c3         1 EOV       0.089300
     43 CA5          6.0390    -1.4280    -0.6510 c3         1 EOV       0.024700
     44 CB4          7.4700    -0.9280    -0.7860 c3         1 EOV      -0.071400
     45 CG3          8.2250    -1.5710    -1.9560 c3         1 EOV      -0.059700
     46 CD12         7.6750    -1.1320    -3.3100 c3         1 EOV      -0.089600
     47 CD22         9.7080    -1.2280    -1.8560 c3         1 EOV      -0.089600
     48 C5           5.9680    -2.8830    -0.1520 c          1 EOV       0.588100
     49 O5           6.8680    -3.4060     0.4880 o          1 EOV      -0.621100
     50 N6           4.8160    -3.4900    -0.4610 ns         1 EOV      -0.497900
     51 CA6          4.4310    -4.8150    -0.0420 c3         1 EOV       0.035700
     52 C6           3.1630    -5.1600    -0.8370 c          1 EOV       0.593100
     53 O6           2.6970    -4.3680    -1.6370 o          1 EOV      -0.567100
     54 CB5          4.1820    -4.9020     1.4660 c3         1 EOV      -0.111100
     55 N7           2.6530    -6.3840    -0.6060 ns         1 EOV      -0.477900
     56 CA7          1.2680    -6.7220    -0.8580 c3         1 EOV       0.039700
     57 CB6          0.8450    -6.5320    -2.3180 c3         1 EOV      -0.090100
     58 C7           0.3770    -5.9080     0.1140 c          1 EOV       0.596100
     59 O7           0.8710    -4.9840     0.7260 o          1 EOV      -0.576100
     60 N8          -0.9220    -6.2840     0.2530 n          1 EOV      -0.397800
     61 CN4         -1.5030    -7.4240    -0.4310 c3         1 EOV       0.086300
     62 CA8         -1.9210    -5.3970     0.8340 c3         1 EOV       0.047700
     63 CB7         -1.6110    -4.7280     2.1850 c3         1 EOV      -0.082400
     64 CG4         -1.6470    -5.6600     3.4000 c3         1 EOV      -0.053700
     65 CD13        -0.5570    -6.7260     3.3910 c3         1 EOV      -0.088100
     66 CD23        -1.5460    -4.8210     4.6710 c3         1 EOV      -0.088100
     67 C8          -2.3060    -4.3350    -0.2080 c          1 EOV       0.582100
     68 O8          -1.4720    -3.9250    -0.9970 o          1 EOV      -0.579100
     69 N9          -3.5880    -3.8960    -0.1930 n          1 EOV      -0.393800
     70 CN5         -4.6000    -4.4570     0.6870 c3         1 EOV       0.095300
     71 CA9         -3.9920    -2.8730    -1.1370 c3         1 EOV       0.027700
     72 CB8         -5.2130    -3.3040    -1.9650 c3         1 EOV      -0.083400
     73 CG5         -5.0530    -4.6360    -2.7020 c3         1 EOV      -0.058700
     74 CD14        -6.3590    -4.9730    -3.4170 c3         1 EOV      -0.093600
     75 CD24        -3.8960    -4.6080    -3.6950 c3         1 EOV      -0.093600
     76 C9          -4.2580    -1.5540    -0.3820 c          1 EOV       0.608100
     77 O9          -4.2190    -1.5440     0.8340 o          1 EOV      -0.575100
     78 NA          -4.6140    -0.4780    -1.1300 n          1 EOV      -0.406800
     79 CN6         -4.2670    -0.3270    -2.5340 c3         1 EOV       0.077300
     80 CAA         -5.2320     0.7250    -0.5840 c3         1 EOV       0.057700
     81 CB9         -6.2060     0.5170     0.5980 c3         1 EOV      -0.062700
     82 CG12        -6.8730     1.8290     1.0100 c3         1 EOV      -0.089600
     83 CG22        -7.2860    -0.4950     0.2280 c3         1 EOV      -0.089600
     84 CC          -4.1320     1.7470    -0.2500 c          1 EOV       0.595100
     85 OA          -3.1610     1.3540     0.3860 o          1 EOV      -0.580100
     86 HN1         -5.0850     3.1030    -2.6080 h1         1 EOV       0.043367
     87 HN2         -6.3080     3.0290    -1.3260 h1         1 EOV       0.043367
     88 HN3         -5.4260     4.5010    -1.5910 h1         1 EOV       0.043367
     89 HA          -3.7570     4.9920    -0.6100 h1         1 EOV       0.061700
     90 HB          -2.0630     5.1520     0.8400 h1         1 EOV       0.056700
     91 HG1         -1.8290     2.3800     0.8100 ho         1 EOV       0.495000
     92 HG2         -3.9450     3.1600     2.1490 hc         1 EOV       0.066700
     93 HD11        -4.1440     6.2020     1.8600 hc         1 EOV       0.031700
     94 HD12        -5.2030     5.0380     1.0600 hc         1 EOV       0.031700
     95 HD13        -5.2350     5.1880     2.7990 hc         1 EOV       0.031700
     96 HD22        -1.8270     3.6760     3.3920 hc         1 EOV       0.050700
     97 HD23        -2.2400     5.3810     3.3350 hc         1 EOV       0.050700
     98 HE          -4.2610     4.9360     4.8040 ha         1 EOV       0.162000
     99 HZ          -2.5200     2.4900     5.3110 ha         1 EOV       0.169000
    100 HH1         -3.4800     3.0480     7.6270 hc         1 EOV       0.037367
    101 HH2         -4.8770     3.7940     6.8470 hc         1 EOV       0.037367
    102 HH3         -4.6080     2.0530     6.7350 hc         1 EOV       0.037367
    103 H           -1.8690     5.8840    -1.4450 hn         1 EOV       0.324500
    104 HA1         -0.2460     4.1800    -3.1870 h1         1 EOV       0.109700
    105 HB3         -1.4560     6.8620    -4.0050 hc         1 EOV       0.048700
    106 HB2         -0.2800     5.9620    -4.9380 hc         1 EOV       0.048700
    107 HG11        -1.9140     4.0530    -5.1620 hc         1 EOV       0.035367
    108 HG3         -3.1150     4.9930    -4.2790 hc         1 EOV       0.035367
    109 HG21        -2.5350     5.5570    -5.8400 hc         1 EOV       0.035367
    110 HA2          3.7160     6.3840    -2.2150 h1         1 EOV       0.079700
    111 HA3          2.5050     7.0240    -1.1200 h1         1 EOV       0.079700
    112 HN11         1.5450     4.7120    -4.3880 h1         1 EOV       0.052033
    113 HN21         3.1900     4.8480    -3.8190 h1         1 EOV       0.052033
    114 HN31         2.1230     3.6350    -3.1030 h1         1 EOV       0.052033
    115 HN12         1.3970     6.5080     0.4040 h1         1 EOV       0.050700
    116 HN22         0.4050     5.0460     0.4980 h1         1 EOV       0.050700
    117 HN32         1.3240     5.6200     1.8930 h1         1 EOV       0.050700
    118 HA4          3.6350     3.0850     0.9430 h1         1 EOV       0.085700
    119 HB21         0.9440     3.4760     2.3220 hc         1 EOV       0.062200
    120 HB31         1.9940     2.1280     2.5730 hc         1 EOV       0.062200
    121 HG           2.8970     4.9720     3.1350 hc         1 EOV       0.054700
    122 HD14         1.8050     2.8530     5.0460 hc         1 EOV       0.032867
    123 HD15         2.4800     4.4110     5.5210 hc         1 EOV       0.032867
    124 HD16         0.9820     4.3430     4.5930 hc         1 EOV       0.032867
    125 HD21         4.0900     2.2730     3.9210 hc         1 EOV       0.032867
    126 HD24         4.7810     3.3920     2.7400 hc         1 EOV       0.032867
    127 HD25         4.6880     3.8480     4.4300 hc         1 EOV       0.032867
    128 H1           1.5740     0.5560    -0.6830 hn         1 EOV       0.338500
    129 HA5          3.5190     1.0480     1.4750 h1         1 EOV       0.064700
    130 HB1          1.5170     0.0440     2.3360 hc         1 EOV       0.053700
    131 HG12         1.9080    -2.3470     0.4630 hc         1 EOV       0.043033
    132 HG13         0.7260    -2.1910     1.7370 hc         1 EOV       0.043033
    133 HG14         0.6280    -1.1410     0.3410 hc         1 EOV       0.043033
    134 HG22         3.6440    -0.6180     3.4090 hc         1 EOV       0.043033
    135 HG23         2.4790    -1.9310     3.4550 hc         1 EOV       0.043033
    136 HG24         3.8020    -1.9900     2.3070 hc         1 EOV       0.043033
    137 HN13         5.1620     0.3900     2.1010 h1         1 EOV       0.043700
    138 HN23         6.2570    -0.9710     2.0320 h1         1 EOV       0.043700
    139 HN33         6.6700     0.5510     1.2290 h1         1 EOV       0.043700
    140 HA6          5.5660    -1.3820    -1.6310 h1         1 EOV       0.097700
    141 HB22         7.4520     0.1560    -0.9380 hc         1 EOV       0.055200
    142 HB32         8.0240    -1.1080     0.1360 hc         1 EOV       0.055200
    143 HG4          8.1280    -2.6590    -1.8810 hc         1 EOV       0.057700
    144 HD17         8.2260    -1.6070    -4.1230 hc         1 EOV       0.033533
    145 HD18         6.6230    -1.3880    -3.4460 hc         1 EOV       0.033533
    146 HD19         7.7700    -0.0500    -3.4330 hc         1 EOV       0.033533
    147 HD26        10.1370    -1.5770    -0.9150 hc         1 EOV       0.033533
    148 HD27        10.2740    -1.6830    -2.6700 hc         1 EOV       0.033533
    149 HD28         9.8610    -0.1480    -1.9110 hc         1 EOV       0.033533
    150 H2           4.1340    -2.9970    -1.0230 hn         1 EOV       0.364500
    151 HA7          5.2140    -5.5320    -0.3130 h1         1 EOV       0.070700
    152 HB11         3.3070    -4.3220     1.7520 hc         1 EOV       0.050700
    153 HB23         4.0250    -5.9310     1.7870 hc         1 EOV       0.050700
    154 HB33         5.0490    -4.5290     2.0080 hc         1 EOV       0.050700
    155 H3           3.0860    -6.9230     0.1270 hn         1 EOV       0.305500
    156 HA8          1.1950    -7.7840    -0.6170 h1         1 EOV       0.054700
    157 HB12         1.6570    -6.8300    -2.9800 hc         1 EOV       0.055367
    158 HB24        -0.0100    -7.1600    -2.5560 hc         1 EOV       0.055367
    159 HB34         0.5750    -5.5030    -2.5350 hc         1 EOV       0.055367
    160 HN14        -0.7580    -8.1740    -0.6750 h1         1 EOV       0.038367
    161 HN24        -2.2250    -7.9050     0.2290 h1         1 EOV       0.038367
    162 HN34        -2.0220    -7.1390    -1.3510 h1         1 EOV       0.038367
    163 HA9         -2.7850    -6.0430     1.0160 h1         1 EOV       0.054700
    164 HB25        -0.6630    -4.1990     2.1420 hc         1 EOV       0.075700
    165 HB35        -2.3770    -3.9610     2.3360 hc         1 EOV       0.075700
    166 HG5         -2.6200    -6.1670     3.4060 hc         1 EOV       0.032700
    167 HD1A        -0.6030    -7.3250     4.3020 hc         1 EOV       0.033867
    168 HD1B        -0.6480    -7.4060     2.5450 hc         1 EOV       0.033867
    169 HD1C         0.4330    -6.2680     3.3430 hc         1 EOV       0.033867
    170 HD29        -2.3490    -4.0840     4.7360 hc         1 EOV       0.033867
    171 HD2A        -1.5980    -5.4470     5.5640 hc         1 EOV       0.033867
    172 HD2B        -0.5970    -4.2800     4.7030 hc         1 EOV       0.033867
    173 HN15        -4.2710    -4.4920     1.7220 h1         1 EOV       0.039700
    174 HN25        -5.4850    -3.8290     0.6780 h1         1 EOV       0.039700
    175 HN35        -4.9010    -5.4600     0.3800 h1         1 EOV       0.039700
    176 HAA         -3.1480    -2.7340    -1.8130 h1         1 EOV       0.108700
    177 HB26        -6.1030    -3.3470    -1.3300 hc         1 EOV       0.047700
    178 HB36        -5.4220    -2.5320    -2.7080 hc         1 EOV       0.047700
    179 HG6         -4.8620    -5.4280    -1.9700 hc         1 EOV       0.045700
    180 HD1D        -6.5860    -4.2310    -4.1860 hc         1 EOV       0.036200
    181 HD1E        -6.2990    -5.9470    -3.9060 hc         1 EOV       0.036200
    182 HD1F        -7.2020    -5.0030    -2.7240 hc         1 EOV       0.036200
    183 HD2C        -3.8620    -5.5320    -4.2750 hc         1 EOV       0.036200
    184 HD2D        -4.0110    -3.7810    -4.4000 hc         1 EOV       0.036200
    185 HD2E        -2.9280    -4.4990    -3.2060 hc         1 EOV       0.036200
    186 HN16        -3.6030    -1.1110    -2.8800 h1         1 EOV       0.047700
    187 HN26        -5.1560    -0.3180    -3.1680 h1         1 EOV       0.047700
    188 HN36        -3.7370     0.6170    -2.6790 h1         1 EOV       0.047700
    189 HAB         -5.8440     1.0950    -1.4080 h1         1 EOV       0.051700
    190 HB4         -5.6480     0.1470     1.4550 hc         1 EOV       0.096700
    191 HG15        -7.5170     2.2260     0.2230 hc         1 EOV       0.035033
    192 HG16        -7.5060     1.6530     1.8810 hc         1 EOV       0.035033
    193 HG17        -6.1570     2.6040     1.2850 hc         1 EOV       0.035033
    194 HG25        -6.8950    -1.4940     0.0430 hc         1 EOV       0.035033
    195 HG26        -8.0120    -0.5810     1.0380 hc         1 EOV       0.035033
    196 HG27        -7.8280    -0.1800    -0.6670 hc         1 EOV       0.035033
@<TRIPOS>BOND
     1     1     2 1   
     2     1     3 1   
     3     1    84 1   
     4     2    86 1   
     5     2    87 1   
     6     2    88 1   
     7     3     4 1   
     8     3     6 1   
     9     3    89 1   
    10     4     5 2   
    11     4    14 1   
    12     6     7 1   
    13     6     8 1   
    14     6    90 1   
    15     7    91 1   
    16     8     9 1   
    17     8    10 1   
    18     8    92 1   
    19     9    93 1   
    20     9    94 1   
    21     9    95 1   
    22    10    11 1   
    23    10    96 1   
    24    10    97 1   
    25    11    12 2   
    26    11    98 1   
    27    12    13 1   
    28    12    99 1   
    29    13   100 1   
    30    13   101 1   
    31    13   102 1   
    32    14    15 1   
    33    14   103 1   
    34    15    16 1   
    35    15    18 1   
    36    15   104 1   
    37    16    17 2   
    38    16    20 1   
    39    18    19 1   
    40    18   105 1   
    41    18   106 1   
    42    19   107 1   
    43    19   108 1   
    44    19   109 1   
    45    20    21 1   
    46    20    24 1   
    47    21    22 1   
    48    21   110 1   
    49    21   111 1   
    50    22    23 2   
    51    22    25 1   
    52    24   112 1   
    53    24   113 1   
    54    24   114 1   
    55    25    26 1   
    56    25    27 1   
    57    26   115 1   
    58    26   116 1   
    59    26   117 1   
    60    27    28 1   
    61    27    32 1   
    62    27   118 1   
    63    28    29 1   
    64    28   119 1   
    65    28   120 1   
    66    29    30 1   
    67    29    31 1   
    68    29   121 1   
    69    30   122 1   
    70    30   123 1   
    71    30   124 1   
    72    31   125 1   
    73    31   126 1   
    74    31   127 1   
    75    32    33 2   
    76    32    34 1   
    77    34    35 1   
    78    34   128 1   
    79    35    36 1   
    80    35    38 1   
    81    35   129 1   
    82    36    37 2   
    83    36    41 1   
    84    38    39 1   
    85    38    40 1   
    86    38   130 1   
    87    39   131 1   
    88    39   132 1   
    89    39   133 1   
    90    40   134 1   
    91    40   135 1   
    92    40   136 1   
    93    41    42 1   
    94    41    43 1   
    95    42   137 1   
    96    42   138 1   
    97    42   139 1   
    98    43    44 1   
    99    43    48 1   
   100    43   140 1   
   101    44    45 1   
   102    44   141 1   
   103    44   142 1   
   104    45    46 1   
   105    45    47 1   
   106    45   143 1   
   107    46   144 1   
   108    46   145 1   
   109    46   146 1   
   110    47   147 1   
   111    47   148 1   
   112    47   149 1   
   113    48    49 2   
   114    48    50 1   
   115    50    51 1   
   116    50   150 1   
   117    51    52 1   
   118    51    54 1   
   119    51   151 1   
   120    52    53 2   
   121    52    55 1   
   122    54   152 1   
   123    54   153 1   
   124    54   154 1   
   125    55    56 1   
   126    55   155 1   
   127    56    57 1   
   128    56    58 1   
   129    56   156 1   
   130    57   157 1   
   131    57   158 1   
   132    57   159 1   
   133    58    59 2   
   134    58    60 1   
   135    60    61 1   
   136    60    62 1   
   137    61   160 1   
   138    61   161 1   
   139    61   162 1   
   140    62    63 1   
   141    62    67 1   
   142    62   163 1   
   143    63    64 1   
   144    63   164 1   
   145    63   165 1   
   146    64    65 1   
   147    64    66 1   
   148    64   166 1   
   149    65   167 1   
   150    65   168 1   
   151    65   169 1   
   152    66   170 1   
   153    66   171 1   
   154    66   172 1   
   155    67    68 2   
   156    67    69 1   
   157    69    70 1   
   158    69    71 1   
   159    70   173 1   
   160    70   174 1   
   161    70   175 1   
   162    71    72 1   
   163    71    76 1   
   164    71   176 1   
   165    72    73 1   
   166    72   177 1   
   167    72   178 1   
   168    73    74 1   
   169    73    75 1   
   170    73   179 1   
   171    74   180 1   
   172    74   181 1   
   173    74   182 1   
   174    75   183 1   
   175    75   184 1   
   176    75   185 1   
   177    76    77 2   
   178    76    78 1   
   179    78    79 1   
   180    78    80 1   
   181    79   186 1   
   182    79   187 1   
   183    79   188 1   
   184    80    81 1   
   185    80    84 1   
   186    80   189 1   
   187    81    82 1   
   188    81    83 1   
   189    81   190 1   
   190    82   191 1   
   191    82   192 1   
   192    82   193 1   
   193    83   194 1   
   194    83   195 1   
   195    83   196 1   
   196    84    85 2   
@<TRIPOS>SUBSTRUCTURE
     1 EOV         1 TEMP              0 ****  ****    0 ROOT
