@<TRIPOS>MOLECULE
EOV
  196   196     1     0     0
SMALL
No Charge or Current Charge


@<TRIPOS>ATOM
      1 N           -4.9560     3.6450    -1.3810 n          1 EOV      -0.382800
      2 CN          -5.7790     3.9470    -2.5830 c3         1 EOV       0.076300
      3 CA          -4.0130     4.7520    -0.9660 c3         1 EOV      -0.015300
      4 C           -2.6440     4.7340    -1.7090 c          1 EOV       0.598100
      5 O           -2.4010     3.9660    -2.6310 o          1 EOV      -0.586100
      6 CB          -3.8900     4.9840     0.5810 c3         1 EOV       0.195300
      7 OG1         -2.9750     4.0250     1.1210 oh         1 EOV      -0.670000
      8 CG2         -5.2370     4.9310     1.3750 c3         1 EOV      -0.086700
      9 CD1         -6.2920     5.9210     0.8040 c3         1 EOV      -0.089100
     10 CD2         -5.0330     5.1660     2.9020 c3         1 EOV      -0.035200
     11 CE          -6.2950     4.9460     3.7150 c2         1 EOV      -0.224200
     12 CZ          -6.5980     3.8200     4.3780 c2         1 EOV      -0.216200
     13 CH          -7.8510     3.6000     5.1980 c3         1 EOV      -0.056900
     14 N1          -1.7020     5.6460    -1.2720 ns         1 EOV      -0.494900
     15 CA1         -0.3070     5.7220    -1.7600 c3         1 EOV       0.040700
     16 C1           0.6540     5.9360    -0.5480 c          1 EOV       0.605100
     17 O1           0.2810     6.5700     0.4340 o          1 EOV      -0.630100
     18 CB1         -0.1360     6.8370    -2.8270 c3         1 EOV      -0.089400
     19 CG          -0.9260     6.5970    -4.1300 c3         1 EOV      -0.084100
     20 N2           1.9560     5.3740    -0.5870 n          1 EOV      -0.391800
     21 CA2          2.8620     5.4190     0.6040 c3         1 EOV       0.026000
     22 C2           3.1830     4.0200     1.1870 c          1 EOV       0.578100
     23 O2           4.2830     3.5160     0.9850 o          1 EOV      -0.609100
     24 CN1          2.4540     4.6200    -1.7630 c3         1 EOV       0.083300
     25 N3           2.1780     3.2920     1.8820 n          1 EOV      -0.373800
     26 CN2          0.8440     3.9010     2.1460 c3         1 EOV       0.074300
     27 CA3          2.3390     1.8000     2.0060 c3         1 EOV       0.027700
     28 CB2          1.5320     1.1290     3.1610 c3         1 EOV      -0.085400
     29 CG1          1.8780     1.6280     4.5940 c3         1 EOV      -0.060700
     30 CD11         0.9000     1.0410     5.6370 c3         1 EOV      -0.090100
     31 CD21         3.3430     1.3340     4.9960 c3         1 EOV      -0.090100
     32 C3           1.9920     1.1020     0.6560 c          1 EOV       0.598100
     33 O3           1.0350     1.4410    -0.0250 o          1 EOV      -0.600100
     34 N4           2.7420     0.0290     0.2320 ns         1 EOV      -0.498900
     35 CA4          4.1550    -0.2770     0.5620 c3         1 EOV       0.059700
     36 C4           4.8030    -0.9220    -0.7170 c          1 EOV       0.587100
     37 O4           4.0800    -1.4790    -1.5380 o          1 EOV      -0.603100
     38 CB3          4.2450    -1.1880     1.8390 c3         1 EOV      -0.068700
     39 CG11         3.2930    -2.4080     1.7730 c3         1 EOV      -0.093100
     40 CG21         5.6760    -1.6390     2.2180 c3         1 EOV      -0.093100
     41 N5           6.2130    -0.9260    -0.9270 n          1 EOV      -0.400800
     42 CN3          7.1210     0.0390    -0.2470 c3         1 EOV       0.089300
     43 CA5          6.8060    -1.8440    -1.9730 c3         1 EOV       0.024700
     44 CB4          8.1960    -1.4060    -2.5420 c3         1 EOV      -0.071400
     45 CG3          8.6910    -2.1650    -3.8100 c3         1 EOV      -0.059700
     46 CD12         7.7340    -2.0170    -5.0180 c3         1 EOV      -0.089600
     47 CD22        10.1200    -1.7150    -4.1920 c3         1 EOV      -0.089600
     48 C5           6.7860    -3.3360    -1.5110 c          1 EOV       0.588100
     49 O5           7.7910    -3.9880    -1.2600 o          1 EOV      -0.621100
     50 N6           5.5240    -3.8720    -1.3850 ns         1 EOV      -0.497900
     51 CA6          5.1760    -5.2180    -0.8790 c3         1 EOV       0.035700
     52 C6           3.6630    -5.4970    -1.1770 c          1 EOV       0.593100
     53 O6           3.1070    -5.0310    -2.1620 o          1 EOV      -0.567100
     54 CB5          5.5900    -5.4140     0.6060 c3         1 EOV      -0.111100
     55 N7           2.9980    -6.2880    -0.2530 ns         1 EOV      -0.477900
     56 CA7          1.5460    -6.6110    -0.2250 c3         1 EOV       0.039700
     57 CB6          1.0450    -7.2440    -1.5470 c3         1 EOV      -0.090100
     58 C7           0.6760    -5.3770     0.2240 c          1 EOV       0.596100
     59 O7           1.0450    -4.2370    -0.0270 o          1 EOV      -0.576100
     60 N8          -0.5330    -5.6020     0.9500 n          1 EOV      -0.397800
     61 CN4         -1.0030    -6.9780     1.2600 c3         1 EOV       0.086300
     62 CA8         -1.4830    -4.4800     1.2900 c3         1 EOV       0.047700
     63 CB7         -0.8920    -3.3620     2.2150 c3         1 EOV      -0.082400
     64 CG4         -0.6180    -3.7430     3.6980 c3         1 EOV      -0.053700
     65 CD13         0.4790    -4.8200     3.8730 c3         1 EOV      -0.088100
     66 CD23        -0.2580    -2.4820     4.5170 c3         1 EOV      -0.088100
     67 C8          -2.2540    -3.8870     0.0580 c          1 EOV       0.582100
     68 O8          -1.8080    -3.9930    -1.0780 o          1 EOV      -0.579100
     69 N9          -3.4740    -3.1830     0.2840 n          1 EOV      -0.393800
     70 CN5         -4.2580    -3.4180     1.5290 c3         1 EOV       0.095300
     71 CA9         -4.1830    -2.4820    -0.8490 c3         1 EOV       0.027700
     72 CB8         -5.4260    -3.2970    -1.3440 c3         1 EOV      -0.083400
     73 CG5         -5.1130    -4.6610    -2.0190 c3         1 EOV      -0.058700
     74 CD14        -6.3990    -5.5000    -2.1890 c3         1 EOV      -0.093600
     75 CD24        -4.3930    -4.4970    -3.3800 c3         1 EOV      -0.093600
     76 C9          -4.5680    -0.9890    -0.5520 c          1 EOV       0.608100
     77 O9          -4.5270    -0.5470     0.5900 o          1 EOV      -0.575100
     78 NA          -5.0750    -0.1930    -1.6240 n          1 EOV      -0.406800
     79 CN6         -4.6150    -0.4430    -3.0150 c3         1 EOV       0.077300
     80 CAA         -5.7140     1.1510    -1.3850 c3         1 EOV       0.057700
     81 CB9         -6.9580     1.0770    -0.4180 c3         1 EOV      -0.062700
     82 CG12        -7.8550     2.3370    -0.4320 c3         1 EOV      -0.089600
     83 CG22        -7.8480    -0.1680    -0.6840 c3         1 EOV      -0.089600
     84 CC          -4.6720     2.2870    -1.0480 c          1 EOV       0.595100
     85 OA          -3.6370     2.0280    -0.4450 o          1 EOV      -0.580100
     86 HN1         -5.5900     3.2060    -3.3690 h1         1 EOV       0.043367
     87 HN2         -6.8440     3.9520    -2.3300 h1         1 EOV       0.043367
     88 HN3         -5.5240     4.9330    -2.9910 h1         1 EOV       0.043367
     89 HA          -4.4620     5.6860    -1.3250 h1         1 EOV       0.061700
     90 HB          -3.4770     5.9910     0.7330 h1         1 EOV       0.056700
     91 HG1         -3.1580     3.1770     0.6310 ho         1 EOV       0.495000
     92 HG2         -5.6410     3.9180     1.2700 hc         1 EOV       0.066700
     93 HD11        -5.9390     6.9560     0.8880 hc         1 EOV       0.031700
     94 HD12        -6.5080     5.7180    -0.2500 hc         1 EOV       0.031700
     95 HD13        -7.2440     5.8390     1.3410 hc         1 EOV       0.031700
     96 HD22        -4.2560     4.4880     3.2750 hc         1 EOV       0.050700
     97 HD23        -4.6510     6.1810     3.0700 hc         1 EOV       0.050700
     98 HE          -6.9680     5.8050     3.7470 ha         1 EOV       0.162000
     99 HZ          -5.9220     2.9620     4.3510 ha         1 EOV       0.169000
    100 HH1         -7.6000     3.3770     6.2420 hc         1 EOV       0.037367
    101 HH2         -8.5000     4.4840     5.1920 hc         1 EOV       0.037367
    102 HH3         -8.4320     2.7570     4.8060 hc         1 EOV       0.037367
    103 H           -1.9510     6.2230    -0.4760 hn         1 EOV       0.324500
    104 HA1         -0.0530     4.7570    -2.2130 h1         1 EOV       0.109700
    105 HB3         -0.4420     7.7990    -2.3950 hc         1 EOV       0.048700
    106 HB2          0.9250     6.9380    -3.0810 hc         1 EOV       0.048700
    107 HG11        -0.6510     5.6350    -4.5800 hc         1 EOV       0.035367
    108 HG3         -2.0070     6.5970    -3.9420 hc         1 EOV       0.035367
    109 HG21        -0.7110     7.3890    -4.8570 hc         1 EOV       0.035367
    110 HA2          3.8130     5.8750     0.3040 h1         1 EOV       0.079700
    111 HA3          2.4490     6.0450     1.4030 h1         1 EOV       0.079700
    112 HN11         2.3110     5.2000    -2.6820 h1         1 EOV       0.052033
    113 HN21         3.5270     4.4110    -1.6570 h1         1 EOV       0.052033
    114 HN31         1.9190     3.6650    -1.8470 h1         1 EOV       0.052033
    115 HN12         0.9540     4.9460     2.4560 h1         1 EOV       0.050700
    116 HN22         0.2280     3.8500     1.2400 h1         1 EOV       0.050700
    117 HN32         0.3120     3.3910     2.9550 h1         1 EOV       0.050700
    118 HA4          3.3950     1.6040     2.2080 h1         1 EOV       0.085700
    119 HB21         0.4580     1.2460     2.9730 hc         1 EOV       0.062200
    120 HB31         1.7040     0.0470     3.1250 hc         1 EOV       0.062200
    121 HG           1.7510     2.7170     4.6200 hc         1 EOV       0.054700
    122 HD14         1.0050    -0.0480     5.7020 hc         1 EOV       0.032867
    123 HD15         1.0960     1.4620     6.6300 hc         1 EOV       0.032867
    124 HD16        -0.1380     1.2730     5.3710 hc         1 EOV       0.032867
    125 HD21         3.5490     0.2570     4.9660 hc         1 EOV       0.032867
    126 HD24         4.0500     1.8430     4.3310 hc         1 EOV       0.032867
    127 HD25         3.5400     1.6870     6.0160 hc         1 EOV       0.032867
    128 H1           2.3810    -0.4260    -0.6000 hn         1 EOV       0.338500
    129 HA5          4.6630     0.6740     0.7500 h1         1 EOV       0.064700
    130 HB1          3.9040    -0.5840     2.6850 hc         1 EOV       0.053700
    131 HG12         3.4920    -3.0150     0.8830 hc         1 EOV       0.043033
    132 HG13         3.4110    -3.0460     2.6580 hc         1 EOV       0.043033
    133 HG14         2.2450    -2.0900     1.7390 hc         1 EOV       0.043033
    134 HG22         6.3290    -0.7760     2.3870 hc         1 EOV       0.043033
    135 HG23         5.6590    -2.2160     3.1510 hc         1 EOV       0.043033
    136 HG24         6.1170    -2.2780     1.4440 hc         1 EOV       0.043033
    137 HN13         6.6540     0.5290     0.6110 h1         1 EOV       0.043700
    138 HN23         8.0130    -0.4870     0.1150 h1         1 EOV       0.043700
    139 HN33         7.4250     0.8200    -0.9540 h1         1 EOV       0.043700
    140 HA6          6.1200    -1.8080    -2.8270 h1         1 EOV       0.097700
    141 HB22         8.1520    -0.3390    -2.7960 hc         1 EOV       0.055200
    142 HB32         8.9520    -1.5090    -1.7540 hc         1 EOV       0.055200
    143 HG4          8.7530    -3.2350    -3.5750 hc         1 EOV       0.057700
    144 HD17         8.1570    -2.4990    -5.9070 hc         1 EOV       0.033533
    145 HD18         6.7660    -2.4910    -4.8210 hc         1 EOV       0.033533
    146 HD19         7.5620    -0.9590    -5.2540 hc         1 EOV       0.033533
    147 HD26        10.8130    -1.8740    -3.3570 hc         1 EOV       0.033533
    148 HD27        10.4920    -2.2880    -5.0500 hc         1 EOV       0.033533
    149 HD28        10.1380    -0.6510    -4.4560 hc         1 EOV       0.033533
    150 H2           4.7570    -3.2420    -1.6230 hn         1 EOV       0.364500
    151 HA7          5.7360    -5.9510    -1.4740 h1         1 EOV       0.070700
    152 HB11         5.0070    -4.7670     1.2700 hc         1 EOV       0.050700
    153 HB23         5.4440    -6.4540     0.9210 hc         1 EOV       0.050700
    154 HB33         6.6500    -5.1820     0.7570 hc         1 EOV       0.050700
    155 H3           3.5590    -6.6240     0.5200 hn         1 EOV       0.305500
    156 HA8          1.4490    -7.3770     0.5510 h1         1 EOV       0.054700
    157 HB12         1.7060    -8.0620    -1.8570 hc         1 EOV       0.055367
    158 HB24         0.0370    -7.6560    -1.4310 hc         1 EOV       0.055367
    159 HB34         1.0050    -6.5050    -2.3550 hc         1 EOV       0.055367
    160 HN14        -0.2250    -7.5350     1.7970 h1         1 EOV       0.038367
    161 HN24        -1.8930    -6.9560     1.9010 h1         1 EOV       0.038367
    162 HN34        -1.2640    -7.5040     0.3350 h1         1 EOV       0.038367
    163 HA9         -2.2710    -4.9370     1.8970 h1         1 EOV       0.054700
    164 HB25         0.0190    -2.9450     1.7780 hc         1 EOV       0.075700
    165 HB35        -1.5920    -2.5190     2.2190 hc         1 EOV       0.075700
    166 HG5         -1.5480    -4.1460     4.1190 hc         1 EOV       0.032700
    167 HD1A         0.7430    -4.9360     4.9310 hc         1 EOV       0.033867
    168 HD1B         0.1350    -5.7980     3.5220 hc         1 EOV       0.033867
    169 HD1C         1.3870    -4.5500     3.3220 hc         1 EOV       0.033867
    170 HD29        -1.0480    -1.7250     4.4410 hc         1 EOV       0.033867
    171 HD2A        -0.1320    -2.7290     5.5780 hc         1 EOV       0.033867
    172 HD2B         0.6790    -2.0400     4.1550 hc         1 EOV       0.033867
    173 HN15        -3.7090    -3.0600     2.4070 h1         1 EOV       0.039700
    174 HN25        -5.2180    -2.8900     1.4940 h1         1 EOV       0.039700
    175 HN35        -4.4600    -4.4910     1.6400 h1         1 EOV       0.039700
    176 HAA         -3.4840    -2.4070    -1.6860 h1         1 EOV       0.108700
    177 HB26        -6.1000    -3.4660    -0.4960 hc         1 EOV       0.047700
    178 HB36        -6.0130    -2.7010    -2.0500 hc         1 EOV       0.047700
    179 HG6         -4.4490    -5.2280    -1.3550 hc         1 EOV       0.045700
    180 HD1D        -7.1180    -4.9890    -2.8410 hc         1 EOV       0.036200
    181 HD1E        -6.1700    -6.4780    -2.6300 hc         1 EOV       0.036200
    182 HD1F        -6.8800    -5.6750    -1.2180 hc         1 EOV       0.036200
    183 HD2C        -4.1880    -5.4780    -3.8270 hc         1 EOV       0.036200
    184 HD2D        -5.0110    -3.9260    -4.0830 hc         1 EOV       0.036200
    185 HD2E        -3.4340    -3.9790    -3.2700 hc         1 EOV       0.036200
    186 HN16        -3.5510    -0.7110    -3.0210 h1         1 EOV       0.047700
    187 HN26        -5.1980    -1.2510    -3.4730 h1         1 EOV       0.047700
    188 HN36        -4.7340     0.4580    -3.6320 h1         1 EOV       0.047700
    189 HAB         -6.1530     1.4270    -2.3490 h1         1 EOV       0.051700
    190 HB4         -6.5760     0.9850     0.6060 hc         1 EOV       0.096700
    191 HG15        -8.3020     2.4880    -1.4220 hc         1 EOV       0.035033
    192 HG16        -8.6740     2.2340     0.2910 hc         1 EOV       0.035033
    193 HG17        -7.2980     3.2350    -0.1550 hc         1 EOV       0.035033
    194 HG25        -7.3160    -1.1000    -0.4690 hc         1 EOV       0.035033
    195 HG26        -8.7390    -0.1550    -0.0450 hc         1 EOV       0.035033
    196 HG27        -8.1810    -0.1930    -1.7300 hc         1 EOV       0.035033
@<TRIPOS>BOND
     1     1     2 1   
     2     1     3 1   
     3     1    84 1   
     4     2    86 1   
     5     2    87 1   
     6     2    88 1   
     7     3     4 1   
     8     3     6 1   
     9     3    89 1   
    10     4     5 2   
    11     4    14 1   
    12     6     7 1   
    13     6     8 1   
    14     6    90 1   
    15     7    91 1   
    16     8     9 1   
    17     8    10 1   
    18     8    92 1   
    19     9    93 1   
    20     9    94 1   
    21     9    95 1   
    22    10    11 1   
    23    10    96 1   
    24    10    97 1   
    25    11    12 2   
    26    11    98 1   
    27    12    13 1   
    28    12    99 1   
    29    13   100 1   
    30    13   101 1   
    31    13   102 1   
    32    14    15 1   
    33    14   103 1   
    34    15    16 1   
    35    15    18 1   
    36    15   104 1   
    37    16    17 2   
    38    16    20 1   
    39    18    19 1   
    40    18   105 1   
    41    18   106 1   
    42    19   107 1   
    43    19   108 1   
    44    19   109 1   
    45    20    21 1   
    46    20    24 1   
    47    21    22 1   
    48    21   110 1   
    49    21   111 1   
    50    22    23 2   
    51    22    25 1   
    52    24   112 1   
    53    24   113 1   
    54    24   114 1   
    55    25    26 1   
    56    25    27 1   
    57    26   115 1   
    58    26   116 1   
    59    26   117 1   
    60    27    28 1   
    61    27    32 1   
    62    27   118 1   
    63    28    29 1   
    64    28   119 1   
    65    28   120 1   
    66    29    30 1   
    67    29    31 1   
    68    29   121 1   
    69    30   122 1   
    70    30   123 1   
    71    30   124 1   
    72    31   125 1   
    73    31   126 1   
    74    31   127 1   
    75    32    33 2   
    76    32    34 1   
    77    34    35 1   
    78    34   128 1   
    79    35    36 1   
    80    35    38 1   
    81    35   129 1   
    82    36    37 2   
    83    36    41 1   
    84    38    39 1   
    85    38    40 1   
    86    38   130 1   
    87    39   131 1   
    88    39   132 1   
    89    39   133 1   
    90    40   134 1   
    91    40   135 1   
    92    40   136 1   
    93    41    42 1   
    94    41    43 1   
    95    42   137 1   
    96    42   138 1   
    97    42   139 1   
    98    43    44 1   
    99    43    48 1   
   100    43   140 1   
   101    44    45 1   
   102    44   141 1   
   103    44   142 1   
   104    45    46 1   
   105    45    47 1   
   106    45   143 1   
   107    46   144 1   
   108    46   145 1   
   109    46   146 1   
   110    47   147 1   
   111    47   148 1   
   112    47   149 1   
   113    48    49 2   
   114    48    50 1   
   115    50    51 1   
   116    50   150 1   
   117    51    52 1   
   118    51    54 1   
   119    51   151 1   
   120    52    53 2   
   121    52    55 1   
   122    54   152 1   
   123    54   153 1   
   124    54   154 1   
   125    55    56 1   
   126    55   155 1   
   127    56    57 1   
   128    56    58 1   
   129    56   156 1   
   130    57   157 1   
   131    57   158 1   
   132    57   159 1   
   133    58    59 2   
   134    58    60 1   
   135    60    61 1   
   136    60    62 1   
   137    61   160 1   
   138    61   161 1   
   139    61   162 1   
   140    62    63 1   
   141    62    67 1   
   142    62   163 1   
   143    63    64 1   
   144    63   164 1   
   145    63   165 1   
   146    64    65 1   
   147    64    66 1   
   148    64   166 1   
   149    65   167 1   
   150    65   168 1   
   151    65   169 1   
   152    66   170 1   
   153    66   171 1   
   154    66   172 1   
   155    67    68 2   
   156    67    69 1   
   157    69    70 1   
   158    69    71 1   
   159    70   173 1   
   160    70   174 1   
   161    70   175 1   
   162    71    72 1   
   163    71    76 1   
   164    71   176 1   
   165    72    73 1   
   166    72   177 1   
   167    72   178 1   
   168    73    74 1   
   169    73    75 1   
   170    73   179 1   
   171    74   180 1   
   172    74   181 1   
   173    74   182 1   
   174    75   183 1   
   175    75   184 1   
   176    75   185 1   
   177    76    77 2   
   178    76    78 1   
   179    78    79 1   
   180    78    80 1   
   181    79   186 1   
   182    79   187 1   
   183    79   188 1   
   184    80    81 1   
   185    80    84 1   
   186    80   189 1   
   187    81    82 1   
   188    81    83 1   
   189    81   190 1   
   190    82   191 1   
   191    82   192 1   
   192    82   193 1   
   193    83   194 1   
   194    83   195 1   
   195    83   196 1   
   196    84    85 2   
@<TRIPOS>SUBSTRUCTURE
     1 EOV         1 TEMP              0 ****  ****    0 ROOT
