@<TRIPOS>MOLECULE
EOX
    9     8     1     0     0
SMALL
No Charge or Current Charge


@<TRIPOS>ATOM
      1 O            1.6070     1.4850    -1.6870 oh         1 EOX      -0.658000
      2 C1           1.9480     0.9930    -0.3870 c3         1 EOX       0.156600
      3 C2           1.0830    -0.2350    -0.0600 c3         1 EOX      -0.133100
      4 H11          3.0100     0.7120    -0.3470 h1         1 EOX       0.039200
      5 H12          1.7770     1.7680     0.3720 h1         1 EOX       0.039200
      6 H21          1.3290    -0.6140     0.9390 hc         1 EOX       0.039700
      7 H22          0.0180     0.0250    -0.0740 hc         1 EOX       0.039700
      8 H23          1.2570    -1.0400    -0.7840 hc         1 EOX       0.039700
      9 HO1          1.7940     0.7610    -2.3250 ho         1 EOX       0.437000
@<TRIPOS>BOND
     1     1     2 1   
     2     1     9 1   
     3     2     3 1   
     4     2     4 1   
     5     2     5 1   
     6     3     6 1   
     7     3     7 1   
     8     3     8 1   
@<TRIPOS>SUBSTRUCTURE
     1 EOX         1 TEMP              0 ****  ****    0 ROOT
