@<TRIPOS>MOLECULE
EOX
    9     8     1     0     0
SMALL
bcc


@<TRIPOS>ATOM
      1 O            1.6310     1.5060    -1.6750 oh         1 EOX      -0.595800
      2 C1           1.9380     0.9630    -0.4070 c3         1 EOX       0.133400
      3 C2           1.0840    -0.2410    -0.0510 c3         1 EOX      -0.133100
      4 H11          2.9990     0.6930    -0.3350 h1         1 EOX       0.039200
      5 H12          1.7690     1.7620     0.3170 h1         1 EOX       0.039200
      6 H21          1.3330    -0.6020     0.9470 hc         1 EOX       0.039700
      7 H22          0.0220     0.0090    -0.0630 hc         1 EOX       0.039700
      8 H23          1.2490    -1.0640    -0.7490 hc         1 EOX       0.039700
      9 HO1          1.7980     0.8280    -2.3370 ho         1 EOX       0.398000
@<TRIPOS>BOND
     1     1     2 1   
     2     1     9 1   
     3     2     3 1   
     4     2     4 1   
     5     2     5 1   
     6     3     6 1   
     7     3     7 1   
     8     3     8 1   
@<TRIPOS>SUBSTRUCTURE
     1 EOX         1 TEMP              0 ****  ****    0 ROOT
