@<TRIPOS>MOLECULE
EOY
   73    79     1     0     0
SMALL
bcc


@<TRIPOS>ATOM
      1 C4           0.9180     1.2110    -0.0190 ca         1 EOY      -0.078000
      2 C5          -0.1570     2.0830     0.0030 ca         1 EOY      -0.131600
      3 C6           0.0430     3.4280     0.3300 ca         1 EOY      -0.115000
      4 C8           4.6570     2.7570     1.0460 cc         1 EOY       0.510600
      5 C17          2.5920    -1.4610    -0.3620 ca         1 EOY      -0.073900
      6 C20          0.8030    -3.4170    -1.2050 ca         1 EOY      -0.196000
      7 C21          1.2480    -2.4490    -2.0950 ca         1 EOY      -0.074000
      8 C22          2.1390    -1.4800    -1.6810 ca         1 EOY       0.007400
      9 C26         -0.2290    -6.2410     1.8990 c3         1 EOY      -0.062700
     10 C28         -1.1720    -7.3750     1.5070 c3         1 EOY      -0.088100
     11 C1           1.3040     3.8830     0.6450 ca         1 EOY      -0.150300
     12 C18          2.1520    -2.4300     0.5240 ca         1 EOY      -0.126000
     13 C2           2.4000     3.0160     0.6530 ca         1 EOY       0.382600
     14 C3           2.1850     1.6690     0.3100 ca         1 EOY      -0.066600
     15 C19          1.2500    -3.4140     0.1140 ca         1 EOY       0.151100
     16 C16          3.5610    -0.4580     0.0930 cc         1 EOY       0.395400
     17 C9           4.5290     1.3640     0.7170 cc         1 EOY      -0.189600
     18 C11         -1.4960     1.5350    -0.3960 c          1 EOY       0.682700
     19 C33         -6.1880     0.4710    -1.4050 c6         1 EOY      -0.070733
     20 C35         -6.6180     2.8660    -0.8400 c6         1 EOY      -0.070733
     21 C38         -6.6350     1.1330     0.9630 c6         1 EOY      -0.070733
     22 C39         -4.3260     2.1340    -1.5300 c6         1 EOY      -0.081733
     23 C31         -4.3430     0.3940     0.2800 c6         1 EOY      -0.081733
     24 C37         -4.7670     2.7850     0.8310 c6         1 EOY      -0.081733
     25 C34         -5.8280     1.9190    -1.7440 c6         1 EOY      -0.056367
     26 C32         -5.8450     0.1850     0.0590 c6         1 EOY      -0.056367
     27 C36         -6.2680     2.5780     0.6210 c6         1 EOY      -0.056367
     28 C30         -3.9620     1.8390    -0.0690 c6         1 EOY       0.137400
     29 C12          5.9980     3.2770     1.4300 c3         1 EOY      -0.147400
     30 C27          1.0660    -6.7890     2.4900 c3         1 EOY      -0.088100
     31 C25          0.0210    -5.3720     0.6800 c3         1 EOY       0.142400
     32 N15          4.8240    -0.7100     0.3250 nd         1 EOY      -0.348700
     33 N14          5.4330     0.4190     0.7110 nd         1 EOY      -0.064000
     34 N7           3.6300     3.5300     1.0030 nd         1 EOY      -0.665000
     35 N10          3.3180     0.8590     0.3380 na         1 EOY      -0.068200
     36 N29         -2.5500     2.1140     0.1940 ns         1 EOY      -0.565900
     37 O13         -1.5610     0.6220    -1.2070 o          1 EOY      -0.598100
     38 O24          0.8740    -4.2970     1.0470 os         1 EOY      -0.318900
     39 CL3          2.6830    -0.2690    -2.7900 cl         1 EOY      -0.091400
     40 H1           0.7430     0.1770    -0.2760 ha         1 EOY       0.174000
     41 H2          -0.7800     4.1300     0.3150 ha         1 EOY       0.140000
     42 H3           0.1050    -4.1620    -1.5630 ha         1 EOY       0.143000
     43 H4           0.8940    -2.4620    -3.1170 ha         1 EOY       0.153000
     44 H5          -0.7310    -5.6270     2.6550 hc         1 EOY       0.059700
     45 H6          -0.7130    -8.0290     0.7620 hc         1 EOY       0.038200
     46 H7          -1.4180    -7.9870     2.3760 hc         1 EOY       0.038200
     47 H8          -2.1090    -7.0000     1.0910 hc         1 EOY       0.038200
     48 H9           1.4710     4.9230     0.8910 ha         1 EOY       0.158000
     49 H10          2.5010    -2.4200     1.5490 ha         1 EOY       0.160000
     50 H11         -7.2550     0.3000    -1.5790 hc         1 EOY       0.042700
     51 H12         -5.6480    -0.2180    -2.0620 hc         1 EOY       0.042700
     52 H13         -6.3860     3.9070    -1.0860 hc         1 EOY       0.042700
     53 H14         -7.6930     2.7370    -1.0030 hc         1 EOY       0.042700
     54 H15         -7.7100     0.9770     0.8300 hc         1 EOY       0.042700
     55 H16         -6.4150     0.9260     2.0150 hc         1 EOY       0.042700
     56 H17         -3.7620     1.4850    -2.2020 hc         1 EOY       0.051033
     57 H18         -4.0500     3.1660    -1.7690 hc         1 EOY       0.051033
     58 H19         -4.0780     0.1930     1.3230 hc         1 EOY       0.051033
     59 H20         -3.7780    -0.3060    -0.3370 hc         1 EOY       0.051033
     60 H21         -4.4950     3.8230     0.6080 hc         1 EOY       0.051033
     61 H22         -4.5050     2.6050     1.8800 hc         1 EOY       0.051033
     62 H23         -6.0690     2.1230    -2.7920 hc         1 EOY       0.052700
     63 H24         -6.0980    -0.8510     0.3020 hc         1 EOY       0.052700
     64 H25         -6.8130     3.2640     1.2750 hc         1 EOY       0.052700
     65 H26          5.9370     4.3350     1.6750 hc         1 EOY       0.068033
     66 H27          6.3880     2.7320     2.2900 hc         1 EOY       0.068033
     67 H28          6.7100     3.1410     0.6150 hc         1 EOY       0.068033
     68 H29          1.6210    -7.3660     1.7460 hc         1 EOY       0.038200
     69 H30          1.7200    -5.9970     2.8550 hc         1 EOY       0.038200
     70 H31          0.8520    -7.4510     3.3290 hc         1 EOY       0.038200
     71 H32          0.4890    -5.9670    -0.1150 h1         1 EOY       0.037200
     72 H33         -0.9280    -4.9840     0.2930 h1         1 EOY       0.037200
     73 H34         -2.3630     2.7730     0.9340 hn         1 EOY       0.313500
@<TRIPOS>BOND
     1     1     2 ar  
     2     1    14 ar  
     3     1    40 1   
     4     2     3 ar  
     5     2    18 1   
     6     3    11 ar  
     7     3    41 1   
     8     4    17 1   
     9     4    29 1   
    10     4    34 2   
    11     5     8 ar  
    12     5    12 ar  
    13     5    16 1   
    14     6     7 ar  
    15     6    15 ar  
    16     6    42 1   
    17     7     8 ar  
    18     7    43 1   
    19     8    39 1   
    20     9    10 1   
    21     9    30 1   
    22     9    31 1   
    23     9    44 1   
    24    10    45 1   
    25    10    46 1   
    26    10    47 1   
    27    11    13 ar  
    28    11    48 1   
    29    12    15 ar  
    30    12    49 1   
    31    13    14 ar  
    32    13    34 1   
    33    14    35 1   
    34    15    38 1   
    35    16    32 2   
    36    16    35 1   
    37    17    33 2   
    38    17    35 1   
    39    18    36 1   
    40    18    37 2   
    41    19    25 1   
    42    19    26 1   
    43    19    50 1   
    44    19    51 1   
    45    20    25 1   
    46    20    27 1   
    47    20    52 1   
    48    20    53 1   
    49    21    26 1   
    50    21    27 1   
    51    21    54 1   
    52    21    55 1   
    53    22    25 1   
    54    22    28 1   
    55    22    56 1   
    56    22    57 1   
    57    23    26 1   
    58    23    28 1   
    59    23    58 1   
    60    23    59 1   
    61    24    27 1   
    62    24    28 1   
    63    24    60 1   
    64    24    61 1   
    65    25    62 1   
    66    26    63 1   
    67    27    64 1   
    68    28    36 1   
    69    29    65 1   
    70    29    66 1   
    71    29    67 1   
    72    30    68 1   
    73    30    69 1   
    74    30    70 1   
    75    31    38 1   
    76    31    71 1   
    77    31    72 1   
    78    32    33 1   
    79    36    73 1   
@<TRIPOS>SUBSTRUCTURE
     1 EOY         1 TEMP              0 ****  ****    0 ROOT
