@<TRIPOS>MOLECULE
EOY
   73    79     1     0     0
SMALL
No Charge or Current Charge


@<TRIPOS>ATOM
      1 C4           0.9020     1.1760     0.4560 ca         1 EOY      -0.060000
      2 C5          -0.2170     2.0360     0.4040 ca         1 EOY      -0.131600
      3 C6          -0.0020     3.4260     0.5400 ca         1 EOY      -0.097000
      4 C8           4.6680     2.8170     1.2010 cc         1 EOY       0.445300
      5 C17          2.6030    -1.4190    -0.2150 ca         1 EOY      -0.073900
      6 C20          0.8180    -3.3250    -1.2970 ca         1 EOY      -0.178000
      7 C21          1.1450    -2.1680    -2.0260 ca         1 EOY      -0.056000
      8 C22          2.0380    -1.2220    -1.4950 ca         1 EOY       0.099000
      9 C26          0.1650    -6.7950     1.3690 c3         1 EOY      -0.062700
     10 C28         -0.9240    -7.8410     1.0380 c3         1 EOY      -0.088100
     11 C1           1.2930     3.9280     0.7500 ca         1 EOY      -0.067000
     12 C18          2.2930    -2.5980     0.4960 ca         1 EOY      -0.108000
     13 C2           2.4090     3.0770     0.8080 ca         1 EOY       0.252000
     14 C3           2.2140     1.6830     0.6120 ca         1 EOY      -0.052000
     15 C19          1.4000    -3.5450    -0.0310 ca         1 EOY       0.151100
     16 C16          3.5450    -0.4590     0.3610 cc         1 EOY       0.395400
     17 C9           4.5530     1.4020     0.9880 cc         1 EOY      -0.175000
     18 C11         -1.6000     1.4410     0.2080 c          1 EOY       0.615700
     19 C33         -6.4240     0.2350    -0.4280 c6         1 EOY      -0.070733
     20 C35         -6.6290     2.5020    -1.5560 c6         1 EOY      -0.070733
     21 C38         -6.9130     2.3060     0.9600 c6         1 EOY      -0.070733
     22 C39         -4.3650     1.3650    -1.4000 c6         1 EOY      -0.081733
     23 C31         -4.6500     1.1670     1.1370 c6         1 EOY      -0.081733
     24 C37         -4.8420     3.4130    -0.0020 c6         1 EOY      -0.081733
     25 C34         -5.8930     1.1330    -1.5850 c6         1 EOY      -0.056367
     26 C32         -6.1780     0.9360     0.9410 c6         1 EOY      -0.056367
     27 C36         -6.3730     3.2010    -0.1910 c6         1 EOY      -0.056367
     28 C30         -4.0820     2.0470    -0.0230 c6         1 EOY       0.137400
     29 C12          6.0260     3.3570     1.5520 c3         1 EOY      -0.147400
     30 C27          1.5360    -7.4750     1.6030 c3         1 EOY      -0.088100
     31 C25          0.2290    -5.6940     0.2810 c3         1 EOY       0.165600
     32 N15          4.8080    -0.7420     0.6610 nd         1 EOY      -0.348700
     33 N14          5.4440     0.4290     1.0430 nd         1 EOY      -0.064000
     34 N7           3.6580     3.6860     1.0920 nd         1 EOY      -0.665000
     35 N10          3.3560     0.8800     0.6360 na         1 EOY       0.033200
     36 N29         -2.6500     2.3380     0.1610 ns         1 EOY      -0.498900
     37 O13         -1.7690     0.2350     0.0970 o          1 EOY      -0.598100
     38 O24          1.1300    -4.6650     0.7270 os         1 EOY      -0.342100
     39 Cl3          2.4530     0.1850    -2.4750 cl         1 EOY      -0.183000
     40 H1           0.7270     0.1090     0.3860 ha         1 EOY       0.156000
     41 H2          -0.8250     4.1350     0.5080 ha         1 EOY       0.122000
     42 H3           0.1240    -4.0380    -1.7330 ha         1 EOY       0.125000
     43 H4           0.7100    -2.0060    -3.0090 ha         1 EOY       0.135000
     44 H5          -0.1290    -6.3090     2.3090 hc         1 EOY       0.059700
     45 H6          -0.6910    -8.3650     0.1030 hc         1 EOY       0.038200
     46 H7          -1.0030    -8.5860     1.8390 hc         1 EOY       0.038200
     47 H8          -1.9030    -7.3600     0.9280 hc         1 EOY       0.038200
     48 H9           1.4330     4.9970     0.8850 ha         1 EOY       0.140000
     49 H10          2.7380    -2.7760     1.4720 ha         1 EOY       0.142000
     50 H11         -7.4960     0.0380    -0.5640 hc         1 EOY       0.042700
     51 H12         -5.9250    -0.7440    -0.4480 hc         1 EOY       0.042700
     52 H13         -6.2800     3.1380    -2.3810 hc         1 EOY       0.042700
     53 H14         -7.7080     2.3570    -1.7120 hc         1 EOY       0.042700
     54 H15         -7.9960     2.1570     0.8490 hc         1 EOY       0.042700
     55 H16         -6.7660     2.8030     1.9290 hc         1 EOY       0.042700
     56 H17         -3.8430     0.4020    -1.4700 hc         1 EOY       0.051033
     57 H18         -3.9760     1.9850    -2.2190 hc         1 EOY       0.051033
     58 H19         -4.4630     1.6490     2.1070 hc         1 EOY       0.051033
     59 H20         -4.1400     0.1960     1.1730 hc         1 EOY       0.051033
     60 H21         -4.4610     4.0720    -0.7950 hc         1 EOY       0.051033
     61 H22         -4.6570     3.9360     0.9460 hc         1 EOY       0.051033
     62 H23         -6.0760     0.6370    -2.5480 hc         1 EOY       0.052700
     63 H24         -6.5610     0.3030     1.7530 hc         1 EOY       0.052700
     64 H25         -6.8850     4.1730    -0.1740 hc         1 EOY       0.052700
     65 H26          6.0040     4.4430     1.7010 hc         1 EOY       0.068033
     66 H27          6.3960     2.8990     2.4760 hc         1 EOY       0.068033
     67 H28          6.7440     3.1420     0.7520 hc         1 EOY       0.068033
     68 H29          1.8920    -7.9600     0.6870 hc         1 EOY       0.038200
     69 H30          2.2900    -6.7430     1.9190 hc         1 EOY       0.038200
     70 H31          1.4610    -8.2370     2.3880 hc         1 EOY       0.038200
     71 H32          0.5750    -6.1330    -0.6640 h1         1 EOY       0.037200
     72 H33         -0.7750    -5.2780     0.1250 h1         1 EOY       0.037200
     73 H34         -2.3930     3.3100     0.2630 hn         1 EOY       0.313500
@<TRIPOS>BOND
     1     1     2 ar  
     2     1    14 ar  
     3     1    40 1   
     4     2     3 ar  
     5     2    18 1   
     6     3    11 ar  
     7     3    41 1   
     8     4    17 1   
     9     4    29 1   
    10     4    34 2   
    11     5     8 ar  
    12     5    12 ar  
    13     5    16 1   
    14     6     7 ar  
    15     6    15 ar  
    16     6    42 1   
    17     7     8 ar  
    18     7    43 1   
    19     8    39 1   
    20     9    10 1   
    21     9    30 1   
    22     9    31 1   
    23     9    44 1   
    24    10    45 1   
    25    10    46 1   
    26    10    47 1   
    27    11    13 ar  
    28    11    48 1   
    29    12    15 ar  
    30    12    49 1   
    31    13    14 ar  
    32    13    34 1   
    33    14    35 1   
    34    15    38 1   
    35    16    32 2   
    36    16    35 1   
    37    17    33 2   
    38    17    35 1   
    39    18    36 1   
    40    18    37 2   
    41    19    25 1   
    42    19    26 1   
    43    19    50 1   
    44    19    51 1   
    45    20    25 1   
    46    20    27 1   
    47    20    52 1   
    48    20    53 1   
    49    21    26 1   
    50    21    27 1   
    51    21    54 1   
    52    21    55 1   
    53    22    25 1   
    54    22    28 1   
    55    22    56 1   
    56    22    57 1   
    57    23    26 1   
    58    23    28 1   
    59    23    58 1   
    60    23    59 1   
    61    24    27 1   
    62    24    28 1   
    63    24    60 1   
    64    24    61 1   
    65    25    62 1   
    66    26    63 1   
    67    27    64 1   
    68    28    36 1   
    69    29    65 1   
    70    29    66 1   
    71    29    67 1   
    72    30    68 1   
    73    30    69 1   
    74    30    70 1   
    75    31    38 1   
    76    31    71 1   
    77    31    72 1   
    78    32    33 1   
    79    36    73 1   
@<TRIPOS>SUBSTRUCTURE
     1 EOY         1 TEMP              0 ****  ****    0 ROOT
