@<TRIPOS>MOLECULE
EOZ
   34    34     1     0     0
SMALL
bcc


@<TRIPOS>ATOM
      1 OAD         -5.0650    -0.7390     2.0100 o          1 EOZ      -0.916000
      2 PAX         -5.3780    -0.0320     0.6960 p5         1 EOZ       1.156700
      3 OAH         -6.8260    -0.1300     0.2280 o          1 EOZ      -0.916000
      4 OAG         -4.8060     1.4110     0.6180 o          1 EOZ      -0.916000
      5 CAN         -4.3760    -0.9290    -0.6180 c3         1 EOZ      -0.328100
      6 CAS         -2.8800    -0.8160    -0.4780 c          1 EOZ       0.695600
      7 OAB         -2.1190    -1.7620    -0.6540 o          1 EOZ      -0.710100
      8 NAP         -2.4790     0.4420    -0.1660 ns         1 EOZ      -0.505600
      9 CAU         -1.1960     0.9590    -0.0410 ca         1 EOZ       0.087100
     10 CAK         -0.0310     0.2680    -0.3640 ca         1 EOZ      -0.240000
     11 CAL         -1.0970     2.2790     0.4160 ca         1 EOZ      -0.205500
     12 CAW          0.1380     2.8930     0.5430 ca         1 EOZ      -0.139600
     13 CAR          0.2250     4.3360     1.0330 c          1 EOZ       0.925200
     14 OAA          1.3660     4.8300     1.1290 o          1 EOZ      -0.882300
     15 OAF         -0.8520     4.9070     1.2940 o          1 EOZ      -0.882300
     16 CAM          1.3020     2.2010     0.2170 ca         1 EOZ      -0.205500
     17 CAV          1.2210     0.8870    -0.2440 ca         1 EOZ       0.087100
     18 NAQ          2.3090     0.1170    -0.6410 ns         1 EOZ      -0.505600
     19 CAT          3.6360     0.3580    -0.5040 c          1 EOZ       0.695600
     20 OAC          4.1100     1.3370     0.0640 o          1 EOZ      -0.710100
     21 CAO          4.4880    -0.7020    -1.1540 c3         1 EOZ      -0.328100
     22 PAY          3.9300    -2.4710    -0.8520 p5         1 EOZ       1.156700
     23 OAI          4.8310    -3.3290    -1.7340 o          1 EOZ      -0.916000
     24 OAE          4.0760    -2.7020     0.6490 o          1 EOZ      -0.916000
     25 OAJ          2.4540    -2.4330    -1.3350 o          1 EOZ      -0.916000
     26 HAN1        -4.6460    -0.4970    -1.5890 hc         1 EOZ       0.016450
     27 HAN2        -4.6440    -1.9870    -0.6600 hc         1 EOZ       0.016450
     28 HAP         -3.2840     1.0570     0.1140 hn         1 EOZ       0.402500
     29 HAK         -0.0810    -0.7530    -0.7120 ha         1 EOZ       0.171000
     30 HAL         -1.9980     2.8250     0.6660 ha         1 EOZ       0.148000
     31 HAM          2.2540     2.6940     0.3240 ha         1 EOZ       0.148000
     32 HAQ          2.1160    -0.8530    -0.9920 hn         1 EOZ       0.402500
     33 HAO1         4.4570    -0.5300    -2.2360 hc         1 EOZ       0.016450
     34 HAO2         5.5240    -0.5560    -0.8430 hc         1 EOZ       0.016450
@<TRIPOS>BOND
     1     1     2 1   
     2     2     3 1   
     3     2     4 1   
     4     2     5 1   
     5     5     6 1   
     6     5    26 1   
     7     5    27 1   
     8     6     7 2   
     9     6     8 1   
    10     8     9 1   
    11     8    28 1   
    12     9    10 ar  
    13     9    11 ar  
    14    10    17 ar  
    15    10    29 1   
    16    11    12 ar  
    17    11    30 1   
    18    12    13 1   
    19    12    16 ar  
    20    13    14 1   
    21    13    15 1   
    22    16    17 ar  
    23    16    31 1   
    24    17    18 1   
    25    18    19 1   
    26    18    32 1   
    27    19    20 2   
    28    19    21 1   
    29    21    22 1   
    30    21    33 1   
    31    21    34 1   
    32    22    23 1   
    33    22    24 1   
    34    22    25 1   
@<TRIPOS>SUBSTRUCTURE
     1 EOZ         1 TEMP              0 ****  ****    0 ROOT
