@<TRIPOS>MOLECULE
EOZ
   34    34     1     0     0
SMALL
No Charge or Current Charge


@<TRIPOS>ATOM
      1 OAD         -5.1490    -2.4510     0.4950 o          1 EOZ      -0.916000
      2 PAX         -5.3640    -0.9830     0.6210 p5         1 EOZ       1.314500
      3 OAH         -6.8170    -0.6920     0.7750 o          1 EOZ      -0.916000
      4 OAG         -4.6040    -0.4220     1.7710 o          1 EOZ      -0.916000
      5 CAN         -4.8210    -0.1590    -0.8910 c3         1 EOZ      -0.485900
      6 CAS         -3.3160    -0.2560    -0.8670 c          1 EOZ       0.628600
      7 OAB         -2.7330    -1.2220    -1.3490 o          1 EOZ      -0.710100
      8 NAP         -2.6860     0.8610    -0.3370 ns         1 EOZ      -0.179500
      9 CAU         -1.3180     1.2230    -0.1800 ca         1 EOZ      -0.005500
     10 CAK         -0.2430     0.3870    -0.5440 ca         1 EOZ      -0.222000
     11 CAL         -1.0430     2.4890     0.3640 ca         1 EOZ      -0.187500
     12 CAW          0.2850     2.9410     0.5540 ca         1 EOZ      -0.139600
     13 CAR          0.5660     4.3220     1.1520 c          1 EOZ       0.714600
     14 OAA          1.7260     4.6630     1.3400 o          1 EOZ      -0.777000
     15 OAF         -0.3790     5.0500     1.4260 o          1 EOZ      -0.777000
     16 CAM          1.3440     2.0800     0.1750 ca         1 EOZ      -0.187500
     17 CAV          1.0880     0.8080    -0.3770 ca         1 EOZ      -0.005500
     18 NAQ          2.1140    -0.0950    -0.7730 ns         1 EOZ      -0.179500
     19 CAT          3.4860     0.0450    -0.9290 c          1 EOZ       0.628600
     20 OAC          4.1000     1.0950    -0.7720 o          1 EOZ      -0.710100
     21 CAO          4.1790    -1.2010    -1.4190 c3         1 EOZ      -0.485900
     22 PAY          4.7950    -2.0070     0.0740 p5         1 EOZ       1.314500
     23 OAI          5.2420    -3.3720    -0.3220 o          1 EOZ      -0.916000
     24 OAE          5.9440    -1.2340     0.6210 o          1 EOZ      -0.916000
     25 OAJ          3.6860    -2.0980     1.0630 o          1 EOZ      -0.916000
     26 HAN1        -5.1630     0.8790    -0.8110 hc         1 EOZ       0.016450
     27 HAN2        -5.2530    -0.6740    -1.7560 hc         1 EOZ       0.016450
     28 HAP         -3.3340     1.5560     0.0060 hn         1 EOZ       0.236000
     29 HAK         -0.4270    -0.5960    -0.9640 ha         1 EOZ       0.153000
     30 HAL         -1.8720     3.1340     0.6460 ha         1 EOZ       0.130000
     31 HAM          2.3650     2.4130     0.3260 ha         1 EOZ       0.130000
     32 HAQ          1.7840    -1.0270    -0.9780 hn         1 EOZ       0.236000
     33 HAO1         3.4750    -1.9060    -1.8780 hc         1 EOZ       0.016450
     34 HAO2         5.0250    -0.9710    -2.0770 hc         1 EOZ       0.016450
@<TRIPOS>BOND
     1     1     2 1   
     2     2     3 1   
     3     2     4 1   
     4     2     5 1   
     5     5     6 1   
     6     5    26 1   
     7     5    27 1   
     8     6     7 2   
     9     6     8 1   
    10     8     9 1   
    11     8    28 1   
    12     9    10 ar  
    13     9    11 ar  
    14    10    17 ar  
    15    10    29 1   
    16    11    12 ar  
    17    11    30 1   
    18    12    13 1   
    19    12    16 ar  
    20    13    14 1   
    21    13    15 1   
    22    16    17 ar  
    23    16    31 1   
    24    17    18 1   
    25    18    19 1   
    26    18    32 1   
    27    19    20 2   
    28    19    21 1   
    29    21    22 1   
    30    21    33 1   
    31    21    34 1   
    32    22    23 1   
    33    22    24 1   
    34    22    25 1   
@<TRIPOS>SUBSTRUCTURE
     1 EOZ         1 TEMP              0 ****  ****    0 ROOT
