@<TRIPOS>MOLECULE
EP0
   53    53     1     0     0
SMALL
No Charge or Current Charge


@<TRIPOS>ATOM
      1 O1          -5.1610     0.2610     2.5510 o          1 EP0      -0.489000
      2 C1          -4.9200     0.0710     1.3640 c          1 EP0       0.554100
      3 C2          -3.5530    -0.4670     0.8400 c3         1 EP0       0.132300
      4 O2          -2.6860    -0.8820     1.9230 oh         1 EP0      -0.625000
      5 C3          -2.8000     0.5720    -0.0230 c3         1 EP0      -0.197400
      6 C4          -1.6180    -0.0660    -0.7460 c          1 EP0       0.610100
      7 O4          -1.7670    -0.8230    -1.6950 o          1 EP0      -0.627100
      8 C5          -7.1230     0.7820     0.6940 c3         1 EP0       0.165600
      9 C6          -7.9160     0.9370    -0.6130 c3         1 EP0      -0.096100
     10 O5          -5.8190     0.2850     0.3490 os         1 EP0      -0.446100
     11 N           -0.3790     0.3020    -0.2750 ns         1 EP0      -0.470900
     12 CA           0.9230    -0.1280    -0.8380 c3         1 EP0       0.027700
     13 C            1.9770    -0.3140     0.3060 c          1 EP0       0.603100
     14 O            1.7710     0.1170     1.4370 o          1 EP0      -0.618100
     15 CB           1.4320     0.8140    -1.9890 c3         1 EP0      -0.066700
     16 CG1          1.1160     2.3280    -1.8000 c3         1 EP0      -0.058400
     17 CG2          0.9440     0.3270    -3.3740 c3         1 EP0      -0.088100
     18 CD1          1.7270     2.9710    -0.5380 c3         1 EP0      -0.106100
     19 N2           3.1950    -0.9700     0.0070 n          1 EP0      -0.370800
     20 CA1          4.3240    -1.0650     0.9800 c5         1 EP0      -0.031300
     21 C7           4.8480     0.2910     1.5710 c          1 EP0       0.729000
     22 O3           5.0230     1.2500     0.8300 o          1 EP0      -0.723000
     23 CB1          5.4290    -1.7170     0.1000 c5         1 EP0      -0.078400
     24 CG3          4.5990    -2.7110    -0.7450 c5         1 EP0      -0.099400
     25 CD3          3.3900    -1.8400    -1.1770 c5         1 EP0       0.106000
     26 OXT          5.0730     0.3590     2.7730 o          1 EP0      -0.723000
     27 H2          -3.8060    -1.3270     0.2030 h1         1 EP0       0.114700
     28 HO2         -3.1710    -0.6970     2.7610 ho         1 EP0       0.462000
     29 H3          -3.4890     0.9590    -0.7830 hc         1 EP0       0.069200
     30 H3A         -2.4640     1.3940     0.6190 hc         1 EP0       0.069200
     31 H5          -7.0510     1.7550     1.1970 h1         1 EP0       0.047200
     32 H5A         -7.6460     0.0820     1.3600 h1         1 EP0       0.047200
     33 H6          -7.4160     1.6430    -1.2860 hc         1 EP0       0.045033
     34 H6A         -8.0110    -0.0280    -1.1240 hc         1 EP0       0.045033
     35 H6B         -8.9230     1.3160    -0.4020 hc         1 EP0       0.045033
     36 HN          -0.3670     0.8880     0.5520 hn         1 EP0       0.333500
     37 HA           0.7800    -1.1320    -1.2550 h1         1 EP0       0.075700
     38 HB           2.5250     0.7360    -2.0230 hc         1 EP0       0.077700
     39 HG1          1.5030     2.8740    -2.6700 hc         1 EP0       0.019700
     40 HG1A         0.0310     2.4900    -1.8000 hc         1 EP0       0.019700
     41 HG2         -0.1420     0.4390    -3.4710 hc         1 EP0       0.029033
     42 HG2A         1.4160     0.9080    -4.1760 hc         1 EP0       0.029033
     43 HG2B         1.2000    -0.7280    -3.5310 hc         1 EP0       0.029033
     44 HD1          1.5680     4.0560    -0.5520 hc         1 EP0       0.048700
     45 HD1A         1.2630     2.5790     0.3740 hc         1 EP0       0.048700
     46 HD1B         2.8060     2.7860    -0.4890 hc         1 EP0       0.048700
     47 HA1          4.0450    -1.7230     1.8140 h1         1 EP0       0.053700
     48 HB1          5.9290    -0.9810    -0.5410 hc         1 EP0       0.048700
     49 HB1A         6.2040    -2.2110     0.6980 hc         1 EP0       0.048700
     50 HG3          5.1540    -3.1090    -1.6020 hc         1 EP0       0.032700
     51 HG3A         4.2720    -3.5650    -0.1400 hc         1 EP0       0.032700
     52 HD3          2.5110    -2.4580    -1.3990 h1         1 EP0       0.034200
     53 HD3A         3.6340    -1.2410    -2.0640 h1         1 EP0       0.034200
@<TRIPOS>BOND
     1     1     2 2   
     2     2     3 1   
     3     2    10 1   
     4     3     4 1   
     5     3     5 1   
     6     3    27 1   
     7     4    28 1   
     8     5     6 1   
     9     5    29 1   
    10     5    30 1   
    11     6     7 2   
    12     6    11 1   
    13     8     9 1   
    14     8    10 1   
    15     8    31 1   
    16     8    32 1   
    17     9    33 1   
    18     9    34 1   
    19     9    35 1   
    20    11    12 1   
    21    11    36 1   
    22    12    13 1   
    23    12    15 1   
    24    12    37 1   
    25    13    14 2   
    26    13    19 1   
    27    15    16 1   
    28    15    17 1   
    29    15    38 1   
    30    16    18 1   
    31    16    39 1   
    32    16    40 1   
    33    17    41 1   
    34    17    42 1   
    35    17    43 1   
    36    18    44 1   
    37    18    45 1   
    38    18    46 1   
    39    19    20 1   
    40    19    25 1   
    41    20    21 1   
    42    20    23 1   
    43    20    47 1   
    44    21    22 1   
    45    21    26 1   
    46    23    24 1   
    47    23    48 1   
    48    23    49 1   
    49    24    25 1   
    50    24    50 1   
    51    24    51 1   
    52    25    52 1   
    53    25    53 1   
@<TRIPOS>SUBSTRUCTURE
     1 EP0         1 TEMP              0 ****  ****    0 ROOT
