@<TRIPOS>MOLECULE
EP0
   53    53     1     0     0
SMALL
abcg2


@<TRIPOS>ATOM
      1 O1          -4.8360    -0.1680     2.4550 o          1 EP0      -0.489000
      2 C1          -4.7420    -0.2400     1.2560 c          1 EP0       0.554100
      3 C2          -3.5230    -0.8020     0.5390 c3         1 EP0       0.132300
      4 O2          -2.7070    -1.5160     1.4180 oh         1 EP0      -0.625000
      5 C3          -2.7670     0.3350    -0.1580 c3         1 EP0      -0.197400
      6 C4          -1.5380    -0.2200    -0.8480 c          1 EP0       0.610100
      7 O4          -1.6280    -1.1150    -1.6770 o          1 EP0      -0.627100
      8 C5          -6.8430     0.8020     0.9290 c3         1 EP0       0.165600
      9 C6          -7.7230     1.1730    -0.2390 c3         1 EP0      -0.096100
     10 O5          -5.6570     0.1780     0.4030 os         1 EP0      -0.446100
     11 N           -0.3800     0.3470    -0.4820 ns         1 EP0      -0.470900
     12 CA           0.9160    -0.0670    -0.9560 c3         1 EP0       0.027700
     13 C            1.8630    -0.1730     0.2420 c          1 EP0       0.603100
     14 O            1.5730     0.3190     1.3270 o          1 EP0      -0.618100
     15 CB           1.4720     0.8340    -2.0920 c3         1 EP0      -0.066700
     16 CG1          1.1610     2.3230    -1.9250 c3         1 EP0      -0.058400
     17 CG2          0.9680     0.3450    -3.4480 c3         1 EP0      -0.088100
     18 CD1          1.7290     2.9860    -0.6760 c3         1 EP0      -0.106100
     19 N2           3.0030    -0.8460     0.0520 n          1 EP0      -0.370800
     20 CA1          3.9840    -0.9320     1.1280 c5         1 EP0      -0.031300
     21 C7           4.5660     0.4340     1.5440 c          1 EP0       0.729000
     22 O3           4.6450     1.3080     0.6650 o          1 EP0      -0.723000
     23 CB1          5.0820    -1.8270     0.5330 c5         1 EP0      -0.078400
     24 CG3          4.3650    -2.6270    -0.5480 c5         1 EP0      -0.099400
     25 CD3          3.4090    -1.5970    -1.1280 c5         1 EP0       0.106000
     26 OXT          4.9730     0.5010     2.7210 o          1 EP0      -0.723000
     27 H2          -3.8640    -1.5100    -0.2200 h1         1 EP0       0.114700
     28 HO2         -2.4460    -0.9410     2.1470 ho         1 EP0       0.462000
     29 H3          -3.4020     0.7980    -0.9160 hc         1 EP0       0.069200
     30 H3A         -2.5120     1.1160     0.5640 hc         1 EP0       0.069200
     31 H5          -6.5610     1.6850     1.5060 h1         1 EP0       0.047200
     32 H5A         -7.3540     0.1080     1.5990 h1         1 EP0       0.047200
     33 H6          -7.2210     1.8630    -0.9180 hc         1 EP0       0.045033
     34 H6A         -8.0340     0.2930    -0.8020 hc         1 EP0       0.045033
     35 H6B         -8.6200     1.6660     0.1330 hc         1 EP0       0.045033
     36 HN          -0.3920     1.0130     0.2750 hn         1 EP0       0.333500
     37 HA           0.7910    -1.0730    -1.3640 h1         1 EP0       0.075700
     38 HB           2.5610     0.7320    -2.0890 hc         1 EP0       0.077700
     39 HG1          1.5660     2.8290    -2.8060 hc         1 EP0       0.019700
     40 HG1A         0.0780     2.4740    -1.9690 hc         1 EP0       0.019700
     41 HG2         -0.1150     0.4450    -3.5340 hc         1 EP0       0.029033
     42 HG2A         1.4210     0.9220    -4.2560 hc         1 EP0       0.029033
     43 HG2B         1.2180    -0.7050    -3.6110 hc         1 EP0       0.029033
     44 HD1          1.6580     4.0720    -0.7590 hc         1 EP0       0.048700
     45 HD1A         1.1950     2.6990     0.2290 hc         1 EP0       0.048700
     46 HD1B         2.7760     2.7230    -0.5230 hc         1 EP0       0.048700
     47 HA1          3.5300    -1.4200     1.9960 h1         1 EP0       0.053700
     48 HB1          5.8590    -1.2130     0.0720 hc         1 EP0       0.048700
     49 HB1A         5.5570    -2.4500     1.2900 hc         1 EP0       0.048700
     50 HG3          5.0390    -3.0360    -1.3010 hc         1 EP0       0.032700
     51 HG3A         3.8040    -3.4550    -0.1100 hc         1 EP0       0.032700
     52 HD3          2.5590    -2.0480    -1.6390 h1         1 EP0       0.034200
     53 HD3A         3.9280    -0.9550    -1.8460 h1         1 EP0       0.034200
@<TRIPOS>BOND
     1     1     2 2   
     2     2     3 1   
     3     2    10 1   
     4     3     4 1   
     5     3     5 1   
     6     3    27 1   
     7     4    28 1   
     8     5     6 1   
     9     5    29 1   
    10     5    30 1   
    11     6     7 2   
    12     6    11 1   
    13     8     9 1   
    14     8    10 1   
    15     8    31 1   
    16     8    32 1   
    17     9    33 1   
    18     9    34 1   
    19     9    35 1   
    20    11    12 1   
    21    11    36 1   
    22    12    13 1   
    23    12    15 1   
    24    12    37 1   
    25    13    14 2   
    26    13    19 1   
    27    15    16 1   
    28    15    17 1   
    29    15    38 1   
    30    16    18 1   
    31    16    39 1   
    32    16    40 1   
    33    17    41 1   
    34    17    42 1   
    35    17    43 1   
    36    18    44 1   
    37    18    45 1   
    38    18    46 1   
    39    19    20 1   
    40    19    25 1   
    41    20    21 1   
    42    20    23 1   
    43    20    47 1   
    44    21    22 1   
    45    21    26 1   
    46    23    24 1   
    47    23    48 1   
    48    23    49 1   
    49    24    25 1   
    50    24    50 1   
    51    24    51 1   
    52    25    52 1   
    53    25    53 1   
@<TRIPOS>SUBSTRUCTURE
     1 EP0         1 TEMP              0 ****  ****    0 ROOT
