@<TRIPOS>MOLECULE
EP1
   35    35     1     0     0
SMALL
abcg2


@<TRIPOS>ATOM
      1 O2S         -0.3970    -1.6420    -4.3090 o          1 EP1      -0.698533
      2 S            0.0470    -0.2330    -4.3530 s6         1 EP1       1.321600
      3 O3S          1.5020    -0.0810    -4.1450 o          1 EP1      -0.698533
      4 O1S         -0.4460     0.4900    -5.5430 o          1 EP1      -0.698533
      5 C11         -0.7400     0.5760    -2.9490 c3         1 EP1      -0.357400
      6 C10         -0.3390    -0.0230    -1.6120 c3         1 EP1      -0.033400
      7 C9          -1.0650     0.6710    -0.4650 c3         1 EP1       0.167800
      8 N1          -0.8430     0.0350     0.8190 n3         1 EP1      -0.719600
      9 C2           0.5070     0.2210     1.3150 c6         1 EP1       0.166300
     10 C3           0.7100    -0.5170     2.6260 c6         1 EP1       0.162800
     11 N4          -0.2450    -0.0740     3.6240 n3         1 EP1      -0.702600
     12 C5          -1.5950    -0.2430     3.1200 c6         1 EP1       0.162800
     13 C6          -1.7870     0.5030     1.8150 c6         1 EP1       0.166300
     14 C7          -0.0900    -0.7520     4.8960 c3         1 EP1       0.170800
     15 C8           1.2180    -0.4790     5.6070 c3         1 EP1       0.164600
     16 O8           1.3600     0.9060     5.8270 oh         1 EP1      -0.639000
     17 H111        -1.8190     0.5000    -3.1020 h1         1 EP1       0.062200
     18 H112        -0.4750     1.6350    -3.0020 h1         1 EP1       0.062200
     19 H101         0.7430     0.0610    -1.4930 hc         1 EP1       0.054700
     20 H102        -0.5840    -1.0870    -1.5910 hc         1 EP1       0.054700
     21 H91         -2.1400     0.6390    -0.6670 h1         1 EP1       0.022200
     22 H92         -0.7880     1.7400    -0.4420 h1         1 EP1       0.022200
     23 H21          1.2260    -0.1620     0.5890 h1         1 EP1       0.038200
     24 H22          0.7340     1.2920     1.4640 h1         1 EP1       0.038200
     25 H31          1.7260    -0.3180     2.9700 h1         1 EP1       0.030200
     26 H32          0.6330    -1.6040     2.4460 h1         1 EP1       0.030200
     27 H51         -1.8380    -1.3080     2.9610 h1         1 EP1       0.030200
     28 H52         -2.3010     0.1410     3.8600 h1         1 EP1       0.030200
     29 H61         -2.8040     0.3300     1.4550 h1         1 EP1       0.038200
     30 H62         -1.6840     1.5870     1.9970 h1         1 EP1       0.038200
     31 H71         -0.1840    -1.8470     4.7900 h1         1 EP1       0.030200
     32 H72         -0.9130    -0.4360     5.5450 h1         1 EP1       0.030200
     33 H81          2.0610    -0.8840     5.0320 h1         1 EP1       0.010700
     34 H82          1.1940    -1.0420     6.5490 h1         1 EP1       0.010700
     35 HO8          2.1680     1.0430     6.3300 ho         1 EP1       0.428000
@<TRIPOS>BOND
     1     1     2 1   
     2     2     3 1   
     3     2     4 1   
     4     2     5 1   
     5     5     6 1   
     6     5    17 1   
     7     5    18 1   
     8     6     7 1   
     9     6    19 1   
    10     6    20 1   
    11     7     8 1   
    12     7    21 1   
    13     7    22 1   
    14     8     9 1   
    15     8    13 1   
    16     9    10 1   
    17     9    23 1   
    18     9    24 1   
    19    10    11 1   
    20    10    25 1   
    21    10    26 1   
    22    11    12 1   
    23    11    14 1   
    24    12    13 1   
    25    12    27 1   
    26    12    28 1   
    27    13    29 1   
    28    13    30 1   
    29    14    15 1   
    30    14    31 1   
    31    14    32 1   
    32    15    16 1   
    33    15    33 1   
    34    15    34 1   
    35    16    35 1   
@<TRIPOS>SUBSTRUCTURE
     1 EP1         1 TEMP              0 ****  ****    0 ROOT
