@<TRIPOS>MOLECULE
EP1
   35    35     1     0     0
SMALL
No Charge or Current Charge


@<TRIPOS>ATOM
      1 O2S         -0.1880    -1.5600    -4.4450 o          1 EP1      -0.698533
      2 S            0.1530    -0.1310    -4.4910 s6         1 EP1       1.321600
      3 O3S          1.5600     0.1730    -4.1910 o          1 EP1      -0.698533
      4 O1S         -0.3900     0.5880    -5.6530 o          1 EP1      -0.698533
      5 C11         -0.7550     0.5810    -3.0940 c3         1 EP1      -0.357400
      6 C10         -0.3610    -0.0180    -1.7190 c3         1 EP1      -0.033400
      7 C9          -1.1550     0.6070    -0.5470 c3         1 EP1       0.167800
      8 N1          -0.9250    -0.0240     0.7760 n3         1 EP1      -0.719600
      9 C2           0.4820     0.1030     1.2770 c6         1 EP1       0.166300
     10 C3           0.6890    -0.5730     2.6710 c6         1 EP1       0.162800
     11 N4          -0.2650    -0.0640     3.7060 n3         1 EP1      -0.702600
     12 C5          -1.6670    -0.1950     3.2040 c6         1 EP1       0.162800
     13 C6          -1.8720     0.4890     1.8150 c6         1 EP1       0.166300
     14 C7          -0.0850    -0.6890     5.0490 c3         1 EP1       0.170800
     15 C8           1.2960    -0.4750     5.7430 c3         1 EP1       0.164600
     16 O8           1.5550     0.9160     6.0060 oh         1 EP1      -0.639000
     17 H111        -1.8180     0.4070    -3.2950 h1         1 EP1       0.062200
     18 H112        -0.5570     1.6580    -3.1120 h1         1 EP1       0.062200
     19 H101         0.7120     0.1350    -1.5570 hc         1 EP1       0.054700
     20 H102        -0.5370    -1.1010    -1.7250 hc         1 EP1       0.054700
     21 H91         -2.2220     0.5300    -0.7960 h1         1 EP1       0.022200
     22 H92         -0.9170     1.6790    -0.4950 h1         1 EP1       0.022200
     23 H21          1.1880    -0.3580     0.5720 h1         1 EP1       0.038200
     24 H22          0.7580     1.1650     1.3590 h1         1 EP1       0.038200
     25 H31          1.7270    -0.3950     2.9840 h1         1 EP1       0.030200
     26 H32          0.5700    -1.6610     2.5540 h1         1 EP1       0.030200
     27 H51         -1.9360    -1.2580     3.1140 h1         1 EP1       0.030200
     28 H52         -2.3690     0.2530     3.9220 h1         1 EP1       0.030200
     29 H61         -2.9110     0.3240     1.4950 h1         1 EP1       0.038200
     30 H62         -1.7430     1.5750     1.9390 h1         1 EP1       0.038200
     31 H71         -0.2530    -1.7710     4.9690 h1         1 EP1       0.030200
     32 H72         -0.8570    -0.3060     5.7320 h1         1 EP1       0.030200
     33 H81          2.0920    -0.8980     5.1170 h1         1 EP1       0.010700
     34 H82          1.2970    -1.0340     6.6870 h1         1 EP1       0.010700
     35 HO8          2.4550     0.9680     6.3940 ho         1 EP1       0.428000
@<TRIPOS>BOND
     1     1     2 1   
     2     2     3 1   
     3     2     4 1   
     4     2     5 1   
     5     5     6 1   
     6     5    17 1   
     7     5    18 1   
     8     6     7 1   
     9     6    19 1   
    10     6    20 1   
    11     7     8 1   
    12     7    21 1   
    13     7    22 1   
    14     8     9 1   
    15     8    13 1   
    16     9    10 1   
    17     9    23 1   
    18     9    24 1   
    19    10    11 1   
    20    10    25 1   
    21    10    26 1   
    22    11    12 1   
    23    11    14 1   
    24    12    13 1   
    25    12    27 1   
    26    12    28 1   
    27    13    29 1   
    28    13    30 1   
    29    14    15 1   
    30    14    31 1   
    31    14    32 1   
    32    15    16 1   
    33    15    33 1   
    34    15    34 1   
    35    16    35 1   
@<TRIPOS>SUBSTRUCTURE
     1 EP1         1 TEMP              0 ****  ****    0 ROOT
