@<TRIPOS>MOLECULE
EP2
   81    82     1     0     0
SMALL
No Charge or Current Charge


@<TRIPOS>ATOM
      1 CB          11.1590     3.1190     2.6970 c3         1 EP2       0.152900
      2 OXT         10.4550     2.0550     2.0300 os         1 EP2      -0.438100
      3 N            7.0100     0.9720     1.1420 ns         1 EP2      -0.505900
      4 CA           8.4900     0.9130     1.2210 c3         1 EP2       0.043000
      5 C            9.0870     2.1260     1.9660 c          1 EP2       0.579100
      6 O            8.4200     3.0390     2.4420 o          1 EP2      -0.486000
      7 N1           3.9360    -0.7740    -0.1080 ns         1 EP2      -0.495900
      8 CA1          4.7060     0.2920     0.5710 c3         1 EP2       0.026000
      9 C1           6.2280     0.0190     0.5310 c          1 EP2       0.593100
     10 O1           6.7180    -0.9700    -0.0010 o          1 EP2      -0.612100
     11 N2           0.5690    -2.1990    -0.5840 ns         1 EP2      -0.486900
     12 CA2          1.9680    -1.9950    -1.0200 c3         1 EP2       0.047700
     13 C2           2.5670    -0.7700    -0.2660 c          1 EP2       0.587100
     14 O2           1.8760     0.1340     0.1880 o          1 EP2      -0.584100
     15 CB1          2.0090    -1.8290    -2.5680 c3         1 EP2      -0.086400
     16 CG           3.4160    -1.7280    -3.2240 c3         1 EP2      -0.058700
     17 CD1          4.2850    -2.9840    -2.9730 c3         1 EP2      -0.089600
     18 CD2          3.2930    -1.4490    -4.7400 c3         1 EP2      -0.089600
     19 O11          0.3970    -4.4170    -1.0870 o          1 EP2      -0.600100
     20 C21         -1.5530    -3.3390    -0.1600 cx         1 EP2       0.009300
     21 O21         -1.9180    -4.2550     0.9090 op         1 EP2      -0.384000
     22 C31         -1.8320    -2.8420     1.2390 cx         1 EP2       0.021300
     23 C41         -3.1390    -2.1200     1.5230 c          1 EP2       0.613100
     24 O41         -3.9150    -2.4780     2.3990 o          1 EP2      -0.595100
     25 N3          -3.3830    -1.0250     0.7170 ns         1 EP2      -0.467900
     26 CA3         -4.5790    -0.1530     0.7910 c3         1 EP2       0.028700
     27 C3          -5.1140     0.1540    -0.6460 c          1 EP2       0.603100
     28 O3          -4.4270    -0.0700    -1.6390 o          1 EP2      -0.598100
     29 CB2         -4.2610     1.1550     1.5720 c3         1 EP2      -0.088400
     30 CG1         -4.0250     0.9940     3.1000 c3         1 EP2      -0.063700
     31 CD11        -3.4950     2.3080     3.7170 c3         1 EP2      -0.086100
     32 CD21        -5.2930     0.5160     3.8490 c3         1 EP2      -0.086100
     33 N4          -6.3950     0.7380    -0.7800 n          1 EP2      -0.374800
     34 CA4         -6.9260     1.2340    -2.0850 c5         1 EP2      -0.031300
     35 C4          -6.0320     2.2720    -2.8490 c          1 EP2       0.727000
     36 O4          -5.4630     3.1600    -2.2260 o          1 EP2      -0.724000
     37 CB3         -8.2500     1.9160    -1.6340 c5         1 EP2      -0.077400
     38 CG2         -8.7300     0.9510    -0.5240 c5         1 EP2      -0.097400
     39 CD          -7.4270     0.7100     0.2820 c5         1 EP2       0.109000
     40 OXT1        -5.9080     2.1590    -4.0620 o          1 EP2      -0.724000
     41 HB1         10.9680     4.0830     2.2080 h1         1 EP2       0.051700
     42 HB2         10.8500     3.1950     3.7480 h1         1 EP2       0.051700
     43 HB3         12.2410     2.9350     2.6740 h1         1 EP2       0.051700
     44 H            6.5340     1.7650     1.5620 hn         1 EP2       0.345500
     45 HA1          8.7990     0.0030     1.7510 h1         1 EP2       0.082200
     46 HA2          8.9170     0.8910     0.2110 h1         1 EP2       0.082200
     47 H1           4.4490    -1.5580    -0.4980 hn         1 EP2       0.341500
     48 HA21         4.5150     1.2550     0.0820 h1         1 EP2       0.072700
     49 HA3          4.3940     0.3610     1.6210 h1         1 EP2       0.072700
     50 H2           0.0710    -1.3990    -0.2060 hn         1 EP2       0.333500
     51 HA           2.5470    -2.8800    -0.7270 h1         1 EP2       0.068700
     52 HB21         1.4800    -2.6740    -3.0260 hc         1 EP2       0.057700
     53 HB31         1.4330    -0.9320    -2.8300 hc         1 EP2       0.057700
     54 HG           3.9390    -0.8660    -2.7940 hc         1 EP2       0.055700
     55 HD11         5.2570    -2.8870    -3.4730 hc         1 EP2       0.033533
     56 HD12         4.4790    -3.1340    -1.9050 hc         1 EP2       0.033533
     57 HD13         3.7910    -3.8840    -3.3610 hc         1 EP2       0.033533
     58 HD21         2.7250    -0.5290    -4.9210 hc         1 EP2       0.033533
     59 HD22         4.2840    -1.3270    -5.1940 hc         1 EP2       0.033533
     60 HD23         2.7820    -2.2750    -5.2500 hc         1 EP2       0.033533
     61 H21         -2.3100    -3.2130    -0.9340 h1         1 EP2       0.117700
     62 H31         -0.9980    -2.5730     1.8870 h1         1 EP2       0.107700
     63 H3          -2.7000    -0.8240    -0.0040 hn         1 EP2       0.318500
     64 HA4         -5.3770    -0.7010     1.3040 h1         1 EP2       0.068700
     65 HB22        -3.3730     1.6140     1.1170 hc         1 EP2       0.074700
     66 HB32        -5.0710     1.8790     1.4260 hc         1 EP2       0.074700
     67 HG1         -3.2450     0.2370     3.2480 hc         1 EP2       0.039700
     68 HD14        -4.2290     3.1160     3.6060 hc         1 EP2       0.029533
     69 HD15        -3.2860     2.1780     4.7860 hc         1 EP2       0.029533
     70 HD16        -2.5640     2.6190     3.2280 hc         1 EP2       0.029533
     71 HD24        -5.6140    -0.4730     3.5040 hc         1 EP2       0.029533
     72 HD25        -5.0990     0.4400     4.9260 hc         1 EP2       0.029533
     73 HD26        -6.1220     1.2180     3.7000 hc         1 EP2       0.029533
     74 HA5         -7.1270     0.3870    -2.7550 h1         1 EP2       0.054700
     75 HB23        -8.0740     2.9200    -1.2290 hc         1 EP2       0.047200
     76 HB33        -8.9720     2.0140    -2.4540 hc         1 EP2       0.047200
     77 HG2         -9.5300     1.3750     0.0920 hc         1 EP2       0.031700
     78 HG3         -9.1060     0.0150    -0.9530 hc         1 EP2       0.031700
     79 HD2         -7.4590    -0.2480     0.8170 h1         1 EP2       0.029200
     80 HD3         -7.2590     1.5150     1.0090 h1         1 EP2       0.029200
     81 C11         -0.1180    -3.3940    -0.6540 c          1 EP2       0.615100
@<TRIPOS>BOND
     1     1     2 1   
     2     1    41 1   
     3     1    42 1   
     4     1    43 1   
     5     2     5 1   
     6     3     4 1   
     7     3     9 1   
     8     3    44 1   
     9     4     5 1   
    10     4    45 1   
    11     4    46 1   
    12     5     6 2   
    13     7     8 1   
    14     7    13 1   
    15     7    47 1   
    16     8     9 1   
    17     8    48 1   
    18     8    49 1   
    19     9    10 2   
    20    11    12 1   
    21    11    50 1   
    22    11    81 1   
    23    12    13 1   
    24    12    15 1   
    25    12    51 1   
    26    13    14 2   
    27    15    16 1   
    28    15    52 1   
    29    15    53 1   
    30    16    17 1   
    31    16    18 1   
    32    16    54 1   
    33    17    55 1   
    34    17    56 1   
    35    17    57 1   
    36    18    58 1   
    37    18    59 1   
    38    18    60 1   
    39    19    81 2   
    40    20    21 1   
    41    20    22 1   
    42    20    61 1   
    43    20    81 1   
    44    21    22 1   
    45    22    23 1   
    46    22    62 1   
    47    23    24 2   
    48    23    25 1   
    49    25    26 1   
    50    25    63 1   
    51    26    27 1   
    52    26    29 1   
    53    26    64 1   
    54    27    28 2   
    55    27    33 1   
    56    29    30 1   
    57    29    65 1   
    58    29    66 1   
    59    30    31 1   
    60    30    32 1   
    61    30    67 1   
    62    31    68 1   
    63    31    69 1   
    64    31    70 1   
    65    32    71 1   
    66    32    72 1   
    67    32    73 1   
    68    33    34 1   
    69    33    39 1   
    70    34    35 1   
    71    34    37 1   
    72    34    74 1   
    73    35    36 1   
    74    35    40 1   
    75    37    38 1   
    76    37    75 1   
    77    37    76 1   
    78    38    39 1   
    79    38    77 1   
    80    38    78 1   
    81    39    79 1   
    82    39    80 1   
@<TRIPOS>SUBSTRUCTURE
     1 EP2         1 TEMP              0 ****  ****    0 ROOT
