@<TRIPOS>MOLECULE
EP2
   81    82     1     0     0
SMALL
abcg2


@<TRIPOS>ATOM
      1 CB          10.2650     3.4150     2.5310 c3         1 EP2       0.152900
      2 OXT          9.6550     2.1790     2.1450 os         1 EP2      -0.438100
      3 N            6.6180     0.9340     0.7370 ns         1 EP2      -0.505900
      4 CA           7.9530     0.8530     1.2640 c3         1 EP2       0.043000
      5 C            8.4460     2.2330     1.6230 c          1 EP2       0.579100
      6 O            7.8190     3.2470     1.4480 o          1 EP2      -0.486000
      7 N1           3.9120    -1.0660    -0.5900 ns         1 EP2      -0.495900
      8 CA1          4.5120     0.1390    -0.0920 c3         1 EP2       0.026000
      9 C1           5.9150    -0.1550     0.4100 c          1 EP2       0.593100
     10 O1           6.3450    -1.2930     0.5170 o          1 EP2      -0.612100
     11 N2           0.8590    -2.6400    -1.3860 ns         1 EP2      -0.486900
     12 CA2          2.2500    -2.4300    -1.7100 c3         1 EP2       0.047700
     13 C2           2.7060    -1.0750    -1.1670 c          1 EP2       0.587100
     14 O2           2.0230    -0.0730    -1.3080 o          1 EP2      -0.584100
     15 CB1          2.4060    -2.4670    -3.2320 c3         1 EP2      -0.086400
     16 CG           3.8280    -2.2870    -3.7620 c3         1 EP2      -0.058700
     17 CD1          4.7690    -3.3910    -3.2910 c3         1 EP2      -0.089600
     18 CD2          3.7940    -2.2380    -5.2870 c3         1 EP2      -0.089600
     19 O11          1.1850    -2.7330     0.8430 o          1 EP2      -0.600100
     20 C21         -1.0540    -2.8540     0.0280 cx         1 EP2       0.009300
     21 O21         -1.5000    -3.5660     1.1530 op         1 EP2      -0.384000
     22 C31         -1.6810    -2.1750     1.1700 cx         1 EP2       0.021300
     23 C41         -3.0990    -1.6970     1.0180 c          1 EP2       0.613100
     24 O41         -3.9370    -2.3450     0.4140 o          1 EP2      -0.595100
     25 N3          -3.3360    -0.5140     1.5940 ns         1 EP2      -0.467900
     26 CA3         -4.5850     0.1850     1.4230 c3         1 EP2       0.028700
     27 C3          -4.7050     0.7070    -0.0120 c          1 EP2       0.603100
     28 O3          -3.7050     0.8790    -0.6970 o          1 EP2      -0.598100
     29 CB2         -4.6570     1.3490     2.4120 c3         1 EP2      -0.088400
     30 CG1         -4.7630     0.9190     3.8780 c3         1 EP2      -0.063700
     31 CD11        -4.5390     2.1210     4.7910 c3         1 EP2      -0.086100
     32 CD21        -6.1080     0.2680     4.1800 c3         1 EP2      -0.086100
     33 N4          -5.9360     0.9870    -0.4520 n          1 EP2      -0.374800
     34 CA4         -6.1090     1.6970    -1.7120 c5         1 EP2      -0.031300
     35 C4          -5.3780     3.0550    -1.7480 c          1 EP2       0.727000
     36 O4          -5.2300     3.6470    -0.6650 o          1 EP2      -0.724000
     37 CB3         -7.6300     1.9050    -1.7940 c5         1 EP2      -0.077400
     38 CG2         -8.2080     0.8180    -0.8960 c5         1 EP2      -0.097400
     39 CD          -7.1960     0.7520     0.2370 c5         1 EP2       0.109000
     40 OXT1        -5.0650     3.4610    -2.8850 o          1 EP2      -0.724000
     41 HB1         10.4020     4.0720     1.6730 h1         1 EP2       0.051700
     42 HB2          9.6750     3.9260     3.2900 h1         1 EP2       0.051700
     43 HB3         11.2340     3.1510     2.9430 h1         1 EP2       0.051700
     44 H            6.2200     1.8510     0.6000 hn         1 EP2       0.345500
     45 HA1          7.9900     0.2200     2.1540 h1         1 EP2       0.082200
     46 HA2          8.6450     0.4140     0.5380 h1         1 EP2       0.082200
     47 H1           4.4060    -1.9310    -0.4240 hn         1 EP2       0.341500
     48 HA21         4.5550     0.9030    -0.8720 h1         1 EP2       0.072700
     49 HA3          3.9290     0.5620     0.7320 h1         1 EP2       0.072700
     50 H2           0.1840    -2.6230    -2.1340 hn         1 EP2       0.333500
     51 HA           2.8410    -3.2320    -1.2580 h1         1 EP2       0.068700
     52 HB21         2.0170    -3.4290    -3.5840 hc         1 EP2       0.057700
     53 HB31         1.7620    -1.6920    -3.6600 hc         1 EP2       0.057700
     54 HG           4.2210    -1.3260    -3.4130 hc         1 EP2       0.055700
     55 HD11         5.7670    -3.2520    -3.7110 hc         1 EP2       0.033533
     56 HD12         4.8830    -3.4190    -2.2070 hc         1 EP2       0.033533
     57 HD13         4.4080    -4.3710    -3.6090 hc         1 EP2       0.033533
     58 HD21         3.1370    -1.4450    -5.6470 hc         1 EP2       0.033533
     59 HD22         4.7890    -2.0560    -5.6940 hc         1 EP2       0.033533
     60 HD23         3.4350    -3.1830    -5.7020 hc         1 EP2       0.033533
     61 H21         -1.6390    -2.9950    -0.8790 h1         1 EP2       0.117700
     62 H31         -1.0420    -1.6280     1.8610 h1         1 EP2       0.107700
     63 H3          -2.5650    -0.0110     2.0050 hn         1 EP2       0.318500
     64 HA4         -5.3920    -0.5220     1.6250 h1         1 EP2       0.068700
     65 HB22        -3.7690     1.9760     2.2700 hc         1 EP2       0.074700
     66 HB32        -5.5080     1.9890     2.1630 hc         1 EP2       0.074700
     67 HG1         -3.9730     0.1880     4.0830 hc         1 EP2       0.039700
     68 HD14        -5.3040     2.8830     4.6250 hc         1 EP2       0.029533
     69 HD15        -4.5850     1.8290     5.8410 hc         1 EP2       0.029533
     70 HD16        -3.5650     2.5810     4.6150 hc         1 EP2       0.029533
     71 HD24        -6.3110    -0.5960     3.5440 hc         1 EP2       0.029533
     72 HD25        -6.1490    -0.0770     5.2140 hc         1 EP2       0.029533
     73 HD26        -6.9220     0.9830     4.0370 hc         1 EP2       0.029533
     74 HA5         -5.7640     1.0710    -2.5400 h1         1 EP2       0.054700
     75 HB23        -7.8970     2.8850    -1.3910 hc         1 EP2       0.047200
     76 HB33        -7.9950     1.8590    -2.8190 hc         1 EP2       0.047200
     77 HG2         -9.2130     1.0430    -0.5390 hc         1 EP2       0.031700
     78 HG3         -8.2420    -0.1400    -1.4200 hc         1 EP2       0.031700
     79 HD2         -7.2070    -0.2110     0.7470 h1         1 EP2       0.029200
     80 HD3         -7.3930     1.5300     0.9820 h1         1 EP2       0.029200
     81 C11          0.4380    -2.7440    -0.1210 c          1 EP2       0.615100
@<TRIPOS>BOND
     1     1     2 1   
     2     1    41 1   
     3     1    42 1   
     4     1    43 1   
     5     2     5 1   
     6     3     4 1   
     7     3     9 1   
     8     3    44 1   
     9     4     5 1   
    10     4    45 1   
    11     4    46 1   
    12     5     6 2   
    13     7     8 1   
    14     7    13 1   
    15     7    47 1   
    16     8     9 1   
    17     8    48 1   
    18     8    49 1   
    19     9    10 2   
    20    11    12 1   
    21    11    50 1   
    22    11    81 1   
    23    12    13 1   
    24    12    15 1   
    25    12    51 1   
    26    13    14 2   
    27    15    16 1   
    28    15    52 1   
    29    15    53 1   
    30    16    17 1   
    31    16    18 1   
    32    16    54 1   
    33    17    55 1   
    34    17    56 1   
    35    17    57 1   
    36    18    58 1   
    37    18    59 1   
    38    18    60 1   
    39    19    81 2   
    40    20    21 1   
    41    20    22 1   
    42    20    61 1   
    43    20    81 1   
    44    21    22 1   
    45    22    23 1   
    46    22    62 1   
    47    23    24 2   
    48    23    25 1   
    49    25    26 1   
    50    25    63 1   
    51    26    27 1   
    52    26    29 1   
    53    26    64 1   
    54    27    28 2   
    55    27    33 1   
    56    29    30 1   
    57    29    65 1   
    58    29    66 1   
    59    30    31 1   
    60    30    32 1   
    61    30    67 1   
    62    31    68 1   
    63    31    69 1   
    64    31    70 1   
    65    32    71 1   
    66    32    72 1   
    67    32    73 1   
    68    33    34 1   
    69    33    39 1   
    70    34    35 1   
    71    34    37 1   
    72    34    74 1   
    73    35    36 1   
    74    35    40 1   
    75    37    38 1   
    76    37    75 1   
    77    37    76 1   
    78    38    39 1   
    79    38    77 1   
    80    38    78 1   
    81    39    79 1   
    82    39    80 1   
@<TRIPOS>SUBSTRUCTURE
     1 EP2         1 TEMP              0 ****  ****    0 ROOT
