@<TRIPOS>MOLECULE
EP4
   39    41     1     0     0
SMALL
No Charge or Current Charge


@<TRIPOS>ATOM
      1 CG           4.4010    -1.6420    -0.8570 c3         1 EP4       0.145600
      2 N2           3.0980    -1.5470    -0.1560 n3         1 EP4      -0.709600
      3 CE           2.8550    -2.7090     0.7270 c3         1 EP4       0.145600
      4 C5           2.8850    -0.2500     0.5460 c3         1 EP4       0.139800
      5 C4           2.8960     1.0330    -0.3530 c5         1 EP4       0.162300
      6 O4           1.9070     0.9540    -1.4100 os         1 EP4      -0.423000
      7 C1           0.6240     1.3540    -0.8730 c5         1 EP4       0.322300
      8 N9          -0.2300     0.1800    -0.6850 na         1 EP4      -0.302300
      9 C9          -1.4550     0.1080    -0.0720 ca         1 EP4       0.124500
     10 N3          -2.1880     1.0560     0.5470 nb         1 EP4      -0.211000
     11 C2          -3.3780     0.6500     1.0520 ca         1 EP4       0.175900
     12 N1          -3.8970    -0.5990     0.9960 nb         1 EP4      -0.304000
     13 C6          -3.1440    -1.5190     0.3750 ca         1 EP4       0.447900
     14 N6          -3.6670    -2.7730     0.3110 nv         1 EP4      -1.068900
     15 C7          -1.8920    -1.1880    -0.1850 ca         1 EP4      -0.098600
     16 N7          -0.9920    -1.9950    -0.8720 nc         1 EP4      -0.565100
     17 C8          -0.0000    -1.1270    -1.1580 cd         1 EP4       0.411700
     18 C10          0.9370     2.1960     0.4280 c5         1 EP4       0.081300
     19 O2           0.3140     3.5000     0.4540 oh         1 EP4      -0.690000
     20 C3           2.4910     2.3390     0.3940 c5         1 EP4       0.110300
     21 O3           2.8370     3.5300    -0.3210 oh         1 EP4      -0.704000
     22 H1           5.2350    -1.5450    -0.1490 h1         1 EP4       0.035867
     23 H2           4.4960    -2.6110    -1.3670 h1         1 EP4       0.035867
     24 H3           4.4990    -0.8590    -1.6190 h1         1 EP4       0.035867
     25 H5           3.5840    -2.7370     1.5490 h1         1 EP4       0.035867
     26 H6           1.8480    -2.6620     1.1620 h1         1 EP4       0.035867
     27 H7           2.9340    -3.6490     0.1650 h1         1 EP4       0.035867
     28 H8           1.9260    -0.2880     1.0790 h1         1 EP4       0.036200
     29 H9           3.6580    -0.1220     1.3160 h1         1 EP4       0.036200
     30 H10          3.8930     1.1350    -0.8000 h1         1 EP4       0.099700
     31 H11          0.1080     1.9790    -1.6130 h2         1 EP4       0.120700
     32 H12         -3.9780     1.4070     1.5540 h5         1 EP4       0.044100
     33 H13         -4.6680    -2.8790     0.4540 hn         1 EP4       0.505500
     34 H14         -3.2270    -3.4220    -0.3360 hn         1 EP4       0.505500
     35 H15          0.9010    -1.3710    -1.7110 h5         1 EP4       0.098800
     36 H16          0.6440     1.6230     1.3200 h1         1 EP4       0.057700
     37 H17         -0.6310     3.3710     0.7130 ho         1 EP4       0.514000
     38 H18          2.9120     2.3680     1.4090 h1         1 EP4       0.054700
     39 H19          1.9980     4.0580    -0.2610 ho         1 EP4       0.525000
@<TRIPOS>BOND
     1     1     2 1   
     2     1    22 1   
     3     1    23 1   
     4     1    24 1   
     5     2     3 1   
     6     2     4 1   
     7     3    25 1   
     8     3    26 1   
     9     3    27 1   
    10     4     5 1   
    11     4    28 1   
    12     4    29 1   
    13     5     6 1   
    14     5    20 1   
    15     5    30 1   
    16     6     7 1   
    17     7     8 1   
    18     7    18 1   
    19     7    31 1   
    20     8     9 1   
    21     8    17 1   
    22     9    10 ar  
    23     9    15 ar  
    24    10    11 ar  
    25    11    12 ar  
    26    11    32 1   
    27    12    13 ar  
    28    13    14 1   
    29    13    15 ar  
    30    14    33 1   
    31    14    34 1   
    32    15    16 1   
    33    16    17 2   
    34    17    35 1   
    35    18    19 1   
    36    18    20 1   
    37    18    36 1   
    38    19    37 1   
    39    20    21 1   
    40    20    38 1   
    41    21    39 1   
@<TRIPOS>SUBSTRUCTURE
     1 EP4         1 TEMP              0 ****  ****    0 ROOT
