@<TRIPOS>MOLECULE
EP4
   39    41     1     0     0
SMALL
abcg2


@<TRIPOS>ATOM
      1 CG           4.3080    -1.4630    -1.2710 c3         1 EP4       0.145600
      2 N2           3.3120    -1.5000    -0.2190 n3         1 EP4      -0.709600
      3 CE           3.5360    -2.6230     0.6670 c3         1 EP4       0.145600
      4 C5           3.2390    -0.2660     0.5330 c3         1 EP4       0.139800
      5 C4           2.8540     0.9500    -0.3040 c5         1 EP4       0.162300
      6 O4           1.7130     0.7070    -1.1310 os         1 EP4      -0.423000
      7 C1           0.5510     1.1800    -0.5300 c5         1 EP4       0.322300
      8 N9          -0.3830     0.0760    -0.3810 na         1 EP4      -0.302300
      9 C9          -1.7400     0.1740    -0.2910 ca         1 EP4       0.124500
     10 N3          -2.4990     1.2660    -0.3660 nb         1 EP4      -0.211000
     11 C2          -3.7830     0.9760    -0.2500 ca         1 EP4       0.175900
     12 N1          -4.3520    -0.2150    -0.0740 nb         1 EP4      -0.304000
     13 C6          -3.5760    -1.3020    -0.0040 ca         1 EP4       0.447900
     14 N6          -4.1430    -2.4980     0.1690 nv         1 EP4      -1.068900
     15 C7          -2.1840    -1.1290    -0.1160 ca         1 EP4      -0.098600
     16 N7          -1.1320    -2.0060    -0.1040 nc         1 EP4      -0.565100
     17 C8          -0.0800    -1.2540    -0.2630 cd         1 EP4       0.411700
     18 C10          0.9630     1.8090     0.8120 c5         1 EP4       0.081300
     19 O2           0.1760     2.9340     1.0750 oh         1 EP4      -0.690000
     20 C3           2.4460     2.1220     0.5740 c5         1 EP4       0.110300
     21 O3           2.5940     3.3120    -0.1540 oh         1 EP4      -0.704000
     22 H1           5.3220    -1.2530    -0.8970 h1         1 EP4       0.035867
     23 H2           4.3340    -2.4260    -1.7810 h1         1 EP4       0.035867
     24 H3           4.0630    -0.7100    -2.0190 h1         1 EP4       0.035867
     25 H5           4.4980    -2.5730     1.2010 h1         1 EP4       0.035867
     26 H6           2.7430    -2.6780     1.4150 h1         1 EP4       0.035867
     27 H7           3.5220    -3.5530     0.0970 h1         1 EP4       0.035867
     28 H8           2.5070    -0.4120     1.3350 h1         1 EP4       0.036200
     29 H9           4.1940    -0.0220     1.0300 h1         1 EP4       0.036200
     30 H10          3.6790     1.2250    -0.9660 h1         1 EP4       0.099700
     31 H11          0.0560     1.9250    -1.1620 h2         1 EP4       0.120700
     32 H12         -4.4690     1.8150    -0.3040 h5         1 EP4       0.044100
     33 H13         -5.1430    -2.5830     0.2160 hn         1 EP4       0.505500
     34 H14         -3.5900    -3.3360     0.2040 hn         1 EP4       0.505500
     35 H15          0.9420    -1.6070    -0.3340 h5         1 EP4       0.098800
     36 H16          0.8670     1.0650     1.6110 h1         1 EP4       0.057700
     37 H17          0.2070     3.1190     2.0190 ho         1 EP4       0.514000
     38 H18          3.0140     2.1460     1.5140 h1         1 EP4       0.054700
     39 H19          1.9660     3.9540     0.2000 ho         1 EP4       0.525000
@<TRIPOS>BOND
     1     1     2 1   
     2     1    22 1   
     3     1    23 1   
     4     1    24 1   
     5     2     3 1   
     6     2     4 1   
     7     3    25 1   
     8     3    26 1   
     9     3    27 1   
    10     4     5 1   
    11     4    28 1   
    12     4    29 1   
    13     5     6 1   
    14     5    20 1   
    15     5    30 1   
    16     6     7 1   
    17     7     8 1   
    18     7    18 1   
    19     7    31 1   
    20     8     9 1   
    21     8    17 1   
    22     9    10 ar  
    23     9    15 ar  
    24    10    11 ar  
    25    11    12 ar  
    26    11    32 1   
    27    12    13 ar  
    28    13    14 1   
    29    13    15 ar  
    30    14    33 1   
    31    14    34 1   
    32    15    16 1   
    33    16    17 2   
    34    17    35 1   
    35    18    19 1   
    36    18    20 1   
    37    18    36 1   
    38    19    37 1   
    39    20    21 1   
    40    20    38 1   
    41    21    39 1   
@<TRIPOS>SUBSTRUCTURE
     1 EP4         1 TEMP              0 ****  ****    0 ROOT
