@<TRIPOS>MOLECULE
EP5
   56    59     1     0     0
SMALL
No Charge or Current Charge


@<TRIPOS>ATOM
      1 N2         -10.4320     1.1970    -1.7440 n1         1 EP5      -0.451000
      2 C10         -9.3580     0.9170    -1.3830 cg         1 EP5       0.327000
      3 C7          -8.0310     0.5820    -0.9450 ca         1 EP5      -0.062000
      4 C8          -7.8150    -0.5600    -0.1510 ca         1 EP5      -0.029000
      5 C9          -6.5150    -0.8840     0.2760 ca         1 EP5      -0.186500
      6 C6          -6.9400     1.3930    -1.3070 ca         1 EP5      -0.029000
      7 C5          -5.6430     1.0630    -0.8750 ca         1 EP5      -0.186500
      8 C4          -5.4190    -0.0790    -0.0820 ca         1 EP5       0.338000
      9 N1          -4.1220    -0.4250     0.3600 nh         1 EP5      -0.802400
     10 C           -3.5640    -1.7830     0.0610 c6         1 EP5       0.188300
     11 C1          -2.4800    -2.2030     1.0910 c6         1 EP5       0.088500
     12 C3          -3.0750     0.6240     0.5770 c6         1 EP5       0.188300
     13 C2          -1.9950     0.1640     1.5960 c6         1 EP5       0.088500
     14 N           -1.4220    -1.1630     1.2250 n          1 EP5      -0.414800
     15 C11         -0.1020    -1.3580     0.7470 c          1 EP5       0.612100
     16 O            0.2200    -2.4300     0.2440 o          1 EP5      -0.571100
     17 C12          0.9210    -0.2050     0.9230 c3         1 EP5       0.076600
     18 O1           2.2560    -0.5770     0.5030 os         1 EP5      -0.315100
     19 C13          3.3210     0.2980     0.5720 ca         1 EP5       0.139100
     20 C14          4.5790    -0.1660     0.1390 ca         1 EP5      -0.131000
     21 C15          5.6700     0.7120     0.2020 ca         1 EP5      -0.056800
     22 C16          5.5420     1.9870     0.6740 ca         1 EP5      -0.077200
     23 C17          4.3070     2.4830     1.1140 ca         1 EP5      -0.068000
     24 C18          3.1860     1.6270     1.0600 ca         1 EP5      -0.162000
     25 C20          7.0430     0.5150    -0.1630 cc         1 EP5      -0.217400
     26 C19          7.6910     1.7160     0.1190 cd         1 EP5      -0.104100
     27 N3           6.7590     2.6450     0.6430 na         1 EP5      -0.200700
     28 C21          7.6460    -0.7340    -0.7460 c3         1 EP5      -0.002200
     29 C22          7.1500    -1.0060    -2.1770 c3         1 EP5       0.094600
     30 N4           7.7460    -2.2700    -2.7530 nz         1 EP5      -0.975000
     31 H1          -8.6510    -1.1940     0.1400 ha         1 EP5       0.125500
     32 H2          -6.3620    -1.7600     0.8990 ha         1 EP5       0.115500
     33 H3          -7.0940     2.2770    -1.9230 ha         1 EP5       0.125500
     34 H4          -4.8130     1.6950    -1.1740 ha         1 EP5       0.115500
     35 H5          -4.3580    -2.5440     0.0620 h1         1 EP5       0.052950
     36 H6          -3.1170    -1.7850    -0.9440 h1         1 EP5       0.052950
     37 H7          -2.9580    -2.3500     2.0700 h1         1 EP5       0.066700
     38 H8          -2.0530    -3.1710     0.7950 h1         1 EP5       0.066700
     39 H9          -2.5830     0.8640    -0.3780 h1         1 EP5       0.052950
     40 H10         -3.5340     1.5500     0.9540 h1         1 EP5       0.052950
     41 H11         -1.2240     0.9400     1.6780 h1         1 EP5       0.066700
     42 H12         -2.4620     0.0780     2.5870 h1         1 EP5       0.066700
     43 H13          0.5610     0.6480     0.3340 h1         1 EP5       0.052700
     44 H14          0.9190     0.0790     1.9830 h1         1 EP5       0.052700
     45 H15          4.6960    -1.1800    -0.2320 ha         1 EP5       0.120000
     46 H16          4.2140     3.5010     1.4880 ha         1 EP5       0.129000
     47 H17          2.2270     2.0080     1.4010 ha         1 EP5       0.126000
     48 H18          8.7380     1.9770    -0.0180 h4         1 EP5       0.219000
     49 H19          6.9480     3.6000     0.9350 hn         1 EP5       0.369000
     50 H20          8.7400    -0.6530    -0.7540 hc         1 EP5       0.063200
     51 H21          7.3990    -1.5920    -0.1090 hc         1 EP5       0.063200
     52 H22          6.0580    -1.0910    -2.1670 hx         1 EP5       0.108200
     53 H23          7.4170    -0.1550    -2.8140 hx         1 EP5       0.108200
     54 H24          8.7760    -2.2460    -2.8110 hn         1 EP5       0.509667
     55 H25          7.5150    -3.1160    -2.2080 hn         1 EP5       0.509667
     56 H26          7.4230    -2.4670    -3.7140 hn         1 EP5       0.509667
@<TRIPOS>BOND
     1     1     2 3   
     2     2     3 1   
     3     3     4 ar  
     4     3     6 ar  
     5     4     5 ar  
     6     4    31 1   
     7     5     8 ar  
     8     5    32 1   
     9     6     7 ar  
    10     6    33 1   
    11     7     8 ar  
    12     7    34 1   
    13     8     9 1   
    14     9    10 1   
    15     9    12 1   
    16    10    11 1   
    17    10    35 1   
    18    10    36 1   
    19    11    14 1   
    20    11    37 1   
    21    11    38 1   
    22    12    13 1   
    23    12    39 1   
    24    12    40 1   
    25    13    14 1   
    26    13    41 1   
    27    13    42 1   
    28    14    15 1   
    29    15    16 2   
    30    15    17 1   
    31    17    18 1   
    32    17    43 1   
    33    17    44 1   
    34    18    19 1   
    35    19    20 ar  
    36    19    24 ar  
    37    20    21 ar  
    38    20    45 1   
    39    21    22 ar  
    40    21    25 1   
    41    22    23 ar  
    42    22    27 1   
    43    23    24 ar  
    44    23    46 1   
    45    24    47 1   
    46    25    26 2   
    47    25    28 1   
    48    26    27 1   
    49    26    48 1   
    50    27    49 1   
    51    28    29 1   
    52    28    50 1   
    53    28    51 1   
    54    29    30 1   
    55    29    52 1   
    56    29    53 1   
    57    30    54 1   
    58    30    55 1   
    59    30    56 1   
@<TRIPOS>SUBSTRUCTURE
     1 EP5         1 TEMP              0 ****  ****    0 ROOT
