@<TRIPOS>MOLECULE
EP5
   56    59     1     0     0
SMALL
bcc


@<TRIPOS>ATOM
      1 N2         -10.2320     1.1630    -1.7640 n1         1 EP5      -0.361800
      2 C10         -9.1710     0.8950    -1.3960 cg         1 EP5       0.237800
      3 C7          -7.8670     0.5640    -0.9420 ca         1 EP5      -0.062000
      4 C8          -7.5340    -0.7570    -0.6320 ca         1 EP5      -0.047000
      5 C9          -6.2700    -1.0790    -0.1950 ca         1 EP5      -0.204500
      6 C6          -6.8900     1.5500    -0.8040 ca         1 EP5      -0.047000
      7 C5          -5.6210     1.2290    -0.3700 ca         1 EP5      -0.204500
      8 C4          -5.2700    -0.0960    -0.0410 ca         1 EP5       0.199600
      9 N1          -4.0210    -0.4200     0.4330 nh         1 EP5      -0.664000
     10 C           -3.4570    -1.7340     0.1470 c6         1 EP5       0.188300
     11 C1          -2.3720    -2.1030     1.1410 c6         1 EP5       0.088500
     12 C3          -3.0140     0.6200     0.5590 c6         1 EP5       0.188300
     13 C2          -1.9280     0.2180     1.5440 c6         1 EP5       0.088500
     14 N           -1.3620    -1.0670     1.1970 n          1 EP5      -0.481800
     15 C11         -0.0790    -1.3110     0.8650 c          1 EP5       0.679100
     16 O            0.3240    -2.4100     0.5270 o          1 EP5      -0.571100
     17 C12          0.8710    -0.1220     0.9500 c3         1 EP5       0.053400
     18 O1           2.1420    -0.5830     0.5960 os         1 EP5      -0.291900
     19 C13          3.1750     0.3000     0.5900 ca         1 EP5       0.139100
     20 C14          4.3990    -0.2110     0.1910 ca         1 EP5      -0.149000
     21 C15          5.5090     0.6350     0.1660 ca         1 EP5      -0.056800
     22 C16          5.3670     1.9860     0.5480 ca         1 EP5      -0.077200
     23 C17          4.1400     2.5000     0.9450 ca         1 EP5      -0.086000
     24 C18          3.0460     1.6510     0.9620 ca         1 EP5      -0.180000
     25 C20          6.8860     0.4420    -0.1810 cc         1 EP5      -0.217400
     26 C19          7.4980     1.6510     0.0020 cd         1 EP5      -0.054100
     27 N3           6.5960     2.5750     0.4370 na         1 EP5      -0.150400
     28 C21          7.5070    -0.8150    -0.6920 c3         1 EP5      -0.002200
     29 C22          7.1540    -1.0250    -2.1560 c3         1 EP5       0.122800
     30 N4           7.6990    -2.3130    -2.6640 nz         1 EP5      -0.837600
     31 H1          -8.2750    -1.5390    -0.7280 ha         1 EP5       0.143500
     32 H2          -6.0750    -2.1130     0.0460 ha         1 EP5       0.133500
     33 H3          -7.1180     2.5780    -1.0500 ha         1 EP5       0.143500
     34 H4          -4.9000     2.0290    -0.3110 ha         1 EP5       0.133500
     35 H5          -4.2220    -2.5020     0.2060 h1         1 EP5       0.052950
     36 H6          -3.0470    -1.7550    -0.8710 h1         1 EP5       0.052950
     37 H7          -2.8070    -2.2290     2.1370 h1         1 EP5       0.066700
     38 H8          -1.9230    -3.0480     0.8490 h1         1 EP5       0.066700
     39 H9          -2.5650     0.8600    -0.4140 h1         1 EP5       0.052950
     40 H10         -3.4660     1.5300     0.9490 h1         1 EP5       0.052950
     41 H11         -1.1760     1.0020     1.5640 h1         1 EP5       0.066700
     42 H12         -2.3530     0.1570     2.5500 h1         1 EP5       0.066700
     43 H13          0.5330     0.6750     0.2740 h1         1 EP5       0.052700
     44 H14          0.8600     0.2870     1.9680 h1         1 EP5       0.052700
     45 H15          4.4820    -1.2550    -0.0910 ha         1 EP5       0.138000
     46 H16          4.0260     3.5360     1.2360 ha         1 EP5       0.147000
     47 H17          2.0930     2.0550     1.2710 ha         1 EP5       0.144000
     48 H18          8.5320     1.9200    -0.1500 h4         1 EP5       0.169000
     49 H19          6.8120     3.5340     0.6520 hn         1 EP5       0.318700
     50 H20          8.5920    -0.7710    -0.5800 hc         1 EP5       0.063200
     51 H21          7.1630    -1.6730    -0.1060 hc         1 EP5       0.063200
     52 H22          6.0780    -1.0610    -2.3120 hx         1 EP5       0.108200
     53 H23          7.5690    -0.2380    -2.7810 hx         1 EP5       0.108200
     54 H24          8.7140    -2.3560    -2.5850 hn         1 EP5       0.454467
     55 H25          7.3220    -3.1130    -2.1560 hn         1 EP5       0.454467
     56 H26          7.4710    -2.4510    -3.6480 hn         1 EP5       0.454467
@<TRIPOS>BOND
     1     1     2 3   
     2     2     3 1   
     3     3     4 ar  
     4     3     6 ar  
     5     4     5 ar  
     6     4    31 1   
     7     5     8 ar  
     8     5    32 1   
     9     6     7 ar  
    10     6    33 1   
    11     7     8 ar  
    12     7    34 1   
    13     8     9 1   
    14     9    10 1   
    15     9    12 1   
    16    10    11 1   
    17    10    35 1   
    18    10    36 1   
    19    11    14 1   
    20    11    37 1   
    21    11    38 1   
    22    12    13 1   
    23    12    39 1   
    24    12    40 1   
    25    13    14 1   
    26    13    41 1   
    27    13    42 1   
    28    14    15 1   
    29    15    16 2   
    30    15    17 1   
    31    17    18 1   
    32    17    43 1   
    33    17    44 1   
    34    18    19 1   
    35    19    20 ar  
    36    19    24 ar  
    37    20    21 ar  
    38    20    45 1   
    39    21    22 ar  
    40    21    25 1   
    41    22    23 ar  
    42    22    27 1   
    43    23    24 ar  
    44    23    46 1   
    45    24    47 1   
    46    25    26 2   
    47    25    28 1   
    48    26    27 1   
    49    26    48 1   
    50    27    49 1   
    51    28    29 1   
    52    28    50 1   
    53    28    51 1   
    54    29    30 1   
    55    29    52 1   
    56    29    53 1   
    57    30    54 1   
    58    30    55 1   
    59    30    56 1   
@<TRIPOS>SUBSTRUCTURE
     1 EP5         1 TEMP              0 ****  ****    0 ROOT
