@<TRIPOS>MOLECULE
EP6
   83    88     1     0     0
SMALL
No Charge or Current Charge


@<TRIPOS>ATOM
      1 C2           6.8180     2.2600    -2.0250 ca         1 EP6       0.184900
      2 C4           6.0970     1.1280    -0.1730 ca         1 EP6       0.145500
      3 C5           5.6820     2.3090     0.3870 ca         1 EP6      -0.104600
      4 C6           5.8690     3.4960    -0.3500 ca         1 EP6       0.451900
      5 C8           5.2060     0.7980     1.8420 cc         1 EP6       0.407700
      6 NAV         -5.5860    -0.2900    -1.2590 na         1 EP6      -0.315600
      7 CBB         -6.7650     0.3690    -1.0560 ca         1 EP6      -0.081200
      8 CAK         -7.5500     1.0660    -1.9780 ca         1 EP6      -0.117000
      9 CAI         -8.7380     1.6680    -1.5160 ca         1 EP6      -0.090000
     10 CAZ         -9.1290     1.5680    -0.1470 ca         1 EP6      -0.087300
     11 CBO        -10.4290     2.2160     0.4010 c3         1 EP6       0.004300
     12 CAD        -11.2410     2.9710    -0.6890 c3         1 EP6      -0.083100
     13 CAE        -11.3420     1.1090     0.9950 c3         1 EP6      -0.083100
     14 CAC        -10.0640     3.2340     1.5150 c3         1 EP6      -0.083100
     15 CAM         -8.2870     0.8440     0.7400 ca         1 EP6      -0.052000
     16 CBC         -7.1100     0.2540     0.2570 ca         1 EP6       0.071400
     17 NAW         -6.1750    -0.4810     0.9650 nc         1 EP6      -0.582100
     18 CBA         -5.2740    -0.7880     0.0120 cd         1 EP6       0.417800
     19 CAO         -2.8010    -0.7060     0.5850 c3         1 EP6      -0.058400
     20 CBG         -1.5300    -1.5200     0.8830 cy         1 EP6      -0.083700
     21 CAQ         -0.1610    -0.7580     0.9670 cy         1 EP6      -0.108400
     22 CAP         -0.8660    -2.3340    -0.2850 cy         1 EP6      -0.108400
     23 CBH          0.4790    -2.1040     0.4880 cy         1 EP6       0.200500
     24 NBM          1.7780    -2.0790    -0.2510 n3         1 EP6      -0.771600
     25 CBF          1.8820    -1.1930    -1.4580 c3         1 EP6       0.222500
     26 CAB          2.4760     0.2130    -1.1950 c3         1 EP6      -0.101100
     27 CAA          2.5660    -1.8820    -2.6580 c3         1 EP6      -0.101100
     28 CBK          4.2860    -2.7930     0.0700 c5         1 EP6       0.161300
     29 OAX          5.1800    -1.7890    -0.4770 os         1 EP6      -0.447000
     30 CBI          5.1790    -3.4860     1.1490 c5         1 EP6       0.107300
     31 OAG          6.2010    -4.3220     0.5890 oh         1 EP6      -0.702000
     32 CBJ          5.8110    -2.2320     1.8210 c5         1 EP6       0.082300
     33 OAH          7.0250    -2.5720     2.5200 oh         1 EP6      -0.693000
     34 CBL          6.0320    -1.2800     0.5800 c5         1 EP6       0.318300
     35 N9           5.7920     0.1590     0.7410 na         1 EP6      -0.282300
     36 N7           5.1220     2.1280     1.6550 nd         1 EP6      -0.551100
     37 N3           6.6760     1.0730    -1.3890 nb         1 EP6      -0.215000
     38 N1           6.4420     3.4780    -1.5630 nb         1 EP6      -0.304000
     39 N6           5.4960     4.7160     0.1190 nv         1 EP6      -1.065900
     40 H1           7.2840     2.2330    -3.0090 h5         1 EP6       0.047100
     41 H2           4.8680     0.2680     2.7230 h5         1 EP6       0.060800
     42 H4          -7.2540     1.1450    -3.0220 ha         1 EP6       0.116000
     43 H5          -9.3400     2.2070    -2.2400 ha         1 EP6       0.113000
     44 H6         -11.5520     2.2920    -1.4920 hc         1 EP6       0.034922
     45 H7         -12.1500     3.4130    -0.2630 hc         1 EP6       0.034922
     46 H8         -10.6530     3.7860    -1.1270 hc         1 EP6       0.034922
     47 H9         -10.8630     0.5960     1.8370 hc         1 EP6       0.034922
     48 H10        -12.2850     1.5320     1.3610 hc         1 EP6       0.034922
     49 H11        -11.5820     0.3560     0.2340 hc         1 EP6       0.034922
     50 H12         -9.3870     4.0050     1.1270 hc         1 EP6       0.034922
     51 H13        -10.9610     3.7340     1.9000 hc         1 EP6       0.034922
     52 H14         -9.5690     2.7470     2.3630 hc         1 EP6       0.034922
     53 H15         -8.5360     0.7360     1.7920 ha         1 EP6       0.126000
     54 H19         -2.6290    -0.0510    -0.2790 hc         1 EP6       0.057200
     55 H20         -3.0200    -0.0470     1.4350 hc         1 EP6       0.057200
     56 H21         -1.7290    -2.1320     1.7720 hc         1 EP6       0.054700
     57 H22         -0.0800     0.0810     0.2680 hc         1 EP6       0.053700
     58 H23          0.1380    -0.4160     1.9630 hc         1 EP6       0.053700
     59 H24         -1.1830    -3.3780    -0.3770 hc         1 EP6       0.053700
     60 H25         -0.9570    -1.8610    -1.2680 hc         1 EP6       0.053700
     61 H26          0.5470    -2.8200     1.3190 h1         1 EP6       0.053700
     62 H28          0.8670    -0.9960    -1.8180 h1         1 EP6       0.034700
     63 H29          3.5600     0.1670    -1.0620 hc         1 EP6       0.039533
     64 H30          2.2760     0.8730    -2.0470 hc         1 EP6       0.039533
     65 H31          2.0440     0.6760    -0.3020 hc         1 EP6       0.039533
     66 H32          2.1530    -2.8860    -2.8110 hc         1 EP6       0.039533
     67 H33          2.3930    -1.3040    -3.5730 hc         1 EP6       0.039533
     68 H34          3.6480    -1.9680    -2.5230 hc         1 EP6       0.039533
     69 H37          3.9990    -3.5070    -0.7120 h1         1 EP6       0.100700
     70 H38          4.5730    -4.0600     1.8640 h1         1 EP6       0.050700
     71 H39          7.0060    -4.0970     1.1190 ho         1 EP6       0.520000
     72 H40          5.0850    -1.8000     2.5210 h1         1 EP6       0.048700
     73 H41          6.8040    -2.6750     3.4780 ho         1 EP6       0.513000
     74 H42          7.0760    -1.3630     0.2510 h2         1 EP6       0.118700
     75 H43          5.2700     4.7730     1.1090 hn         1 EP6       0.506500
     76 H44          5.9160     5.5410    -0.3000 hn         1 EP6       0.506500
     77 CAR          2.9820    -2.1410     0.6450 c3         1 EP6       0.206800
     78 CAN         -4.0350    -1.5930     0.3060 c3         1 EP6      -0.088700
     79 H3          -5.0530    -0.4000    -2.1110 hn         1 EP6       0.354000
     80 H17         -4.2130    -2.2450     1.1690 hc         1 EP6       0.054700
     81 H18         -3.8210    -2.2550    -0.5410 hc         1 EP6       0.054700
     82 H35          3.2090    -1.1440     1.0440 h1         1 EP6       0.032700
     83 H36          2.7140    -2.7490     1.5190 h1         1 EP6       0.032700
@<TRIPOS>BOND
     1     1    37 ar  
     2     1    38 ar  
     3     1    40 1   
     4     2     3 ar  
     5     2    35 1   
     6     2    37 ar  
     7     3     4 ar  
     8     3    36 1   
     9     4    38 ar  
    10     4    39 1   
    11     5    35 1   
    12     5    36 2   
    13     5    41 1   
    14     6     7 1   
    15     6    18 1   
    16     6    79 1   
    17     7     8 ar  
    18     7    16 ar  
    19     8     9 ar  
    20     8    42 1   
    21     9    10 ar  
    22     9    43 1   
    23    10    11 1   
    24    10    15 ar  
    25    11    12 1   
    26    11    13 1   
    27    11    14 1   
    28    12    44 1   
    29    12    45 1   
    30    12    46 1   
    31    13    47 1   
    32    13    48 1   
    33    13    49 1   
    34    14    50 1   
    35    14    51 1   
    36    14    52 1   
    37    15    16 ar  
    38    15    53 1   
    39    16    17 1   
    40    17    18 2   
    41    18    78 1   
    42    19    20 1   
    43    19    54 1   
    44    19    55 1   
    45    19    78 1   
    46    20    21 1   
    47    20    22 1   
    48    20    56 1   
    49    21    23 1   
    50    21    57 1   
    51    21    58 1   
    52    22    23 1   
    53    22    59 1   
    54    22    60 1   
    55    23    24 1   
    56    23    61 1   
    57    24    25 1   
    58    24    77 1   
    59    25    26 1   
    60    25    27 1   
    61    25    62 1   
    62    26    63 1   
    63    26    64 1   
    64    26    65 1   
    65    27    66 1   
    66    27    67 1   
    67    27    68 1   
    68    28    29 1   
    69    28    30 1   
    70    28    69 1   
    71    28    77 1   
    72    29    34 1   
    73    30    31 1   
    74    30    32 1   
    75    30    70 1   
    76    31    71 1   
    77    32    33 1   
    78    32    34 1   
    79    32    72 1   
    80    33    73 1   
    81    34    35 1   
    82    34    74 1   
    83    39    75 1   
    84    39    76 1   
    85    77    82 1   
    86    77    83 1   
    87    78    80 1   
    88    78    81 1   
@<TRIPOS>SUBSTRUCTURE
     1 EP6         1 TEMP              0 ****  ****    0 ROOT
