@<TRIPOS>MOLECULE
EP6
   83    88     1     0     0
SMALL
bcc


@<TRIPOS>ATOM
      1 C2           8.5370     0.8220    -2.3490 ca         1 EP6       0.710900
      2 C4           7.1310     0.6780    -0.6700 ca         1 EP6       0.473800
      3 C5           7.2300     2.0310    -0.3920 ca         1 EP6      -0.235200
      4 C6           8.0910     2.7770    -1.2200 ca         1 EP6       0.780200
      5 C8           5.8860     1.2500     1.0350 cc         1 EP6       0.407700
      6 NAV         -5.9720    -0.6080    -1.7630 na         1 EP6      -0.265300
      7 CBB         -7.1470     0.0510    -1.5100 ca         1 EP6      -0.081200
      8 CAK         -8.0820     0.6850    -2.3120 ca         1 EP6      -0.135000
      9 CAI         -9.1710     1.2640    -1.6750 ca         1 EP6      -0.108000
     10 CAZ         -9.3480     1.2240    -0.2800 ca         1 EP6      -0.087300
     11 CBO        -10.5520     1.8700     0.4060 c3         1 EP6       0.004300
     12 CAD        -11.4710     2.5960    -0.5770 c3         1 EP6      -0.083100
     13 CAE        -11.3710     0.7880     1.1230 c3         1 EP6      -0.083100
     14 CAC        -10.0620     2.8960     1.4380 c3         1 EP6      -0.083100
     15 CAM         -8.3940     0.5750     0.4970 ca         1 EP6      -0.070000
     16 CBC         -7.2910    -0.0110    -0.1150 ca         1 EP6       0.071400
     17 NAW         -6.2290    -0.6890     0.4370 nc         1 EP6      -0.582100
     18 CBA         -5.4700    -1.0260    -0.5720 cd         1 EP6       0.417800
     19 CAO         -3.2200    -1.1460     0.5300 c3         1 EP6      -0.058400
     20 CBG         -1.9540    -1.9590     0.6930 cy         1 EP6      -0.083700
     21 CAQ         -0.8180    -1.3770     1.5540 cy         1 EP6      -0.108400
     22 CAP         -0.9630    -2.0420    -0.4900 cy         1 EP6      -0.108400
     23 CBH          0.1770    -2.0000     0.5440 cy         1 EP6       0.200500
     24 NBM          1.4480    -1.4030     0.2210 n3         1 EP6      -0.771600
     25 CBF          1.3830    -0.0420    -0.3200 c3         1 EP6       0.222500
     26 CAB          2.0670     1.0290     0.5230 c3         1 EP6      -0.101100
     27 CAA          1.8620     0.0040    -1.7680 c3         1 EP6      -0.101100
     28 CBK          3.7730    -2.3050     0.4880 c5         1 EP6       0.138100
     29 OAX          4.5120    -1.2780    -0.1900 os         1 EP6      -0.400600
     30 CBI          4.7460    -2.9100     1.5020 c5         1 EP6       0.084100
     31 OAG          5.4140    -3.9890     0.8970 oh         1 EP6      -0.579800
     32 CBJ          5.7020    -1.7420     1.7480 c5         1 EP6       0.059100
     33 OAH          6.9670    -2.0910     2.2240 oh         1 EP6      -0.570800
     34 CBL          5.8070    -1.1790     0.3370 c5         1 EP6       0.265800
     35 N9           6.2640     0.1810     0.2640 na         1 EP6      -0.253000
     36 N7           6.4410     2.3680     0.6790 nd         1 EP6      -0.551100
     37 N3           7.7610     0.0210    -1.6390 nb         1 EP6      -0.741000
     38 N1           8.7340     2.1280    -2.1980 nb         1 EP6      -0.830000
     39 N6           8.2830     4.0870    -1.0700 nv         1 EP6      -0.955500
     40 H1           9.0870     0.3580    -3.1600 h5         1 EP6       0.047100
     41 H2           5.1960     1.1420     1.8580 h5         1 EP6       0.060800
     42 H4          -7.9760     0.7360    -3.3880 ha         1 EP6       0.134000
     43 H5          -9.9050     1.7610    -2.2930 ha         1 EP6       0.131000
     44 H6         -11.8910     1.9240    -1.3270 hc         1 EP6       0.034922
     45 H7         -12.3070     3.0390    -0.0330 hc         1 EP6       0.034922
     46 H8         -10.9550     3.4040    -1.0990 hc         1 EP6       0.034922
     47 H9         -10.7780     0.2580     1.8690 hc         1 EP6       0.034922
     48 H10        -12.2250     1.2340     1.6380 hc         1 EP6       0.034922
     49 H11        -11.7540     0.0490     0.4160 hc         1 EP6       0.034922
     50 H12         -9.4680     3.6790     0.9640 hc         1 EP6       0.034922
     51 H13        -10.9120     3.3700     1.9340 hc         1 EP6       0.034922
     52 H14         -9.4450     2.4350     2.2120 hc         1 EP6       0.034922
     53 H15         -8.4920     0.5190     1.5750 ha         1 EP6       0.144000
     54 H19         -2.9670    -0.1350     0.1960 hc         1 EP6       0.057200
     55 H20         -3.7170    -1.0400     1.4980 hc         1 EP6       0.057200
     56 H21         -2.2050    -2.9670     1.0390 hc         1 EP6       0.054700
     57 H22         -0.8130    -0.2840     1.5090 hc         1 EP6       0.053700
     58 H23         -0.7480    -1.6820     2.6000 hc         1 EP6       0.053700
     59 H24         -1.0070    -2.9070    -1.1540 hc         1 EP6       0.053700
     60 H25         -1.0130    -1.1370    -1.0990 hc         1 EP6       0.053700
     61 H26          0.3680    -3.0310     0.8520 h1         1 EP6       0.053700
     62 H28          0.3270     0.2400    -0.3390 h1         1 EP6       0.034700
     63 H29          3.1510     0.9220     0.5250 hc         1 EP6       0.039533
     64 H30          1.8360     2.0130     0.1130 hc         1 EP6       0.039533
     65 H31          1.7160     1.0160     1.5570 hc         1 EP6       0.039533
     66 H32          1.3040    -0.7110    -2.3760 hc         1 EP6       0.039533
     67 H33          1.7080     0.9970    -2.1960 hc         1 EP6       0.039533
     68 H34          2.9210    -0.2380    -1.8470 hc         1 EP6       0.039533
     69 H37          3.4780    -3.0650    -0.2430 h1         1 EP6       0.100700
     70 H38          4.2360    -3.2200     2.4240 h1         1 EP6       0.050700
     71 H39          6.1910    -4.1960     1.4290 ho         1 EP6       0.421000
     72 H40          5.2040    -1.0200     2.4090 h1         1 EP6       0.048700
     73 H41          6.9220    -2.1880     3.1800 ho         1 EP6       0.414000
     74 H42          6.5230    -1.7680    -0.2460 h2         1 EP6       0.118700
     75 H43          7.8410     4.5960    -0.3250 hn         1 EP6       0.451300
     76 H44          8.9380     4.5740    -1.6580 hn         1 EP6       0.451300
     77 CAR          2.5080    -1.7610     1.1410 c3         1 EP6       0.206800
     78 CAN         -4.1900    -1.7800    -0.4670 c3         1 EP6      -0.088700
     79 H3          -5.5470    -0.7560    -2.6640 hn         1 EP6       0.303700
     80 H17         -4.4120    -2.8060    -0.1560 hc         1 EP6       0.054700
     81 H18         -3.7240    -1.8510    -1.4530 hc         1 EP6       0.054700
     82 H35          2.7670    -0.9560     1.8410 h1         1 EP6       0.032700
     83 H36          2.1340    -2.5730     1.7690 h1         1 EP6       0.032700
@<TRIPOS>BOND
     1     1    37 ar  
     2     1    38 ar  
     3     1    40 1   
     4     2     3 ar  
     5     2    35 1   
     6     2    37 ar  
     7     3     4 ar  
     8     3    36 1   
     9     4    38 ar  
    10     4    39 1   
    11     5    35 1   
    12     5    36 2   
    13     5    41 1   
    14     6     7 1   
    15     6    18 1   
    16     6    79 1   
    17     7     8 ar  
    18     7    16 ar  
    19     8     9 ar  
    20     8    42 1   
    21     9    10 ar  
    22     9    43 1   
    23    10    11 1   
    24    10    15 ar  
    25    11    12 1   
    26    11    13 1   
    27    11    14 1   
    28    12    44 1   
    29    12    45 1   
    30    12    46 1   
    31    13    47 1   
    32    13    48 1   
    33    13    49 1   
    34    14    50 1   
    35    14    51 1   
    36    14    52 1   
    37    15    16 ar  
    38    15    53 1   
    39    16    17 1   
    40    17    18 2   
    41    18    78 1   
    42    19    20 1   
    43    19    54 1   
    44    19    55 1   
    45    19    78 1   
    46    20    21 1   
    47    20    22 1   
    48    20    56 1   
    49    21    23 1   
    50    21    57 1   
    51    21    58 1   
    52    22    23 1   
    53    22    59 1   
    54    22    60 1   
    55    23    24 1   
    56    23    61 1   
    57    24    25 1   
    58    24    77 1   
    59    25    26 1   
    60    25    27 1   
    61    25    62 1   
    62    26    63 1   
    63    26    64 1   
    64    26    65 1   
    65    27    66 1   
    66    27    67 1   
    67    27    68 1   
    68    28    29 1   
    69    28    30 1   
    70    28    69 1   
    71    28    77 1   
    72    29    34 1   
    73    30    31 1   
    74    30    32 1   
    75    30    70 1   
    76    31    71 1   
    77    32    33 1   
    78    32    34 1   
    79    32    72 1   
    80    33    73 1   
    81    34    35 1   
    82    34    74 1   
    83    39    75 1   
    84    39    76 1   
    85    77    82 1   
    86    77    83 1   
    87    78    80 1   
    88    78    81 1   
@<TRIPOS>SUBSTRUCTURE
     1 EP6         1 TEMP              0 ****  ****    0 ROOT
