@<TRIPOS>MOLECULE
EP7
   52    55     1     0     0
SMALL
abcg2


@<TRIPOS>ATOM
      1 C4          -0.3100     0.6480     0.0440 ca         1 EP7      -0.059000
      2 C5          -1.5660     1.2240    -0.0380 ca         1 EP7      -0.130600
      3 C6          -1.7000     2.6150     0.0100 ca         1 EP7      -0.096000
      4 C8           2.9410     3.2280     0.5860 cc         1 EP7       0.446300
      5 N12          4.2690     1.1270     0.6460 nd         1 EP7      -0.063000
      6 C15          1.9730    -1.5500     0.0740 ca         1 EP7      -0.074900
      7 C17          1.1390    -3.6430     0.9450 ca         1 EP7       0.143100
      8 C20          1.5390    -1.9150    -1.2000 ca         1 EP7       0.100000
      9 C24         -5.1460     0.0100     0.1210 c3         1 EP7       0.100000
     10 C26          0.3460    -5.6610     1.9030 c3         1 EP7       0.147900
     11 C28         -6.3580     0.9370     0.1000 c3         1 EP7      -0.077700
     12 C1          -0.5880     3.4130     0.1610 ca         1 EP7      -0.068000
     13 C18          0.7010    -3.9900    -0.3310 ca         1 EP7      -0.174000
     14 C19          0.9030    -3.1240    -1.3970 ca         1 EP7      -0.057000
     15 C16          1.7790    -2.4170     1.1360 ca         1 EP7      -0.106000
     16 C2           0.6880     2.8530     0.2720 ca         1 EP7       0.253000
     17 C3           0.8090     1.4540     0.2020 ca         1 EP7      -0.052000
     18 C14          2.6680    -0.2770     0.2980 cc         1 EP7       0.394400
     19 C9           3.1590     1.8080     0.5300 cc         1 EP7      -0.175000
     20 C11         -2.7330     0.3040    -0.2270 c          1 EP7       0.611700
     21 C27          4.1130     4.1220     0.7920 c3         1 EP7      -0.147400
     22 C29         -6.3130     1.9010    -1.0810 c3         1 EP7      -0.087100
     23 C30         -7.6300     0.0970     0.0740 c3         1 EP7      -0.087100
     24 N13          3.9560    -0.1680     0.5030 nd         1 EP7      -0.347700
     25 N7           1.7550     3.7070     0.4510 nd         1 EP7      -0.665000
     26 N10          2.1080     0.9640     0.3150 na         1 EP7       0.032200
     27 N23         -3.9080     0.7510     0.2380 ns         1 EP7      -0.497900
     28 O22         -2.5890    -0.7790    -0.7780 o          1 EP7      -0.597100
     29 O25          0.9910    -4.4070     2.0350 os         1 EP7      -0.335100
     30 CL1          1.7820    -0.8330    -2.5280 cl         1 EP7      -0.183000
     31 H1          -0.2260    -0.4270     0.0010 ha         1 EP7       0.156000
     32 H2          -2.6700     3.0840    -0.0960 ha         1 EP7       0.123000
     33 H3          -5.2400    -0.7020     0.9480 h1         1 EP7       0.055200
     34 H4          -5.1160    -0.5740    -0.8010 h1         1 EP7       0.055200
     35 H5          -0.6790    -5.5530     1.5410 h1         1 EP7       0.044700
     36 H6           0.8910    -6.3290     1.2310 h1         1 EP7       0.044700
     37 H7           0.3240    -6.1020     2.8960 h1         1 EP7       0.044700
     38 H8          -6.3560     1.5230     1.0270 hc         1 EP7       0.042700
     39 H9          -0.6810     4.4900     0.1950 ha         1 EP7       0.140000
     40 H10          0.1990    -4.9280    -0.5220 ha         1 EP7       0.125000
     41 H11          0.5620    -3.4060    -2.3840 ha         1 EP7       0.135000
     42 H12          2.1130    -2.1350     2.1270 ha         1 EP7       0.143000
     43 H13          3.7950     5.1600     0.8210 hc         1 EP7       0.068033
     44 H14          4.6220     3.8780     1.7260 hc         1 EP7       0.068033
     45 H15          4.8390     3.9930    -0.0120 hc         1 EP7       0.068033
     46 H16         -7.1890     2.5510    -1.0810 hc         1 EP7       0.037033
     47 H17         -5.4300     2.5400    -1.0560 hc         1 EP7       0.037033
     48 H18         -6.3020     1.3550    -2.0270 hc         1 EP7       0.037033
     49 H19         -7.6880    -0.5720     0.9350 hc         1 EP7       0.037033
     50 H20         -8.5180     0.7300     0.0870 hc         1 EP7       0.037033
     51 H21         -7.6740    -0.5150    -0.8290 hc         1 EP7       0.037033
     52 H22         -3.9150     1.5590     0.8420 hn         1 EP7       0.314500
@<TRIPOS>BOND
     1     1     2 ar  
     2     1    17 ar  
     3     1    31 1   
     4     2     3 ar  
     5     2    20 1   
     6     3    12 ar  
     7     3    32 1   
     8     4    19 1   
     9     4    21 1   
    10     4    25 2   
    11     5    19 2   
    12     5    24 1   
    13     6     8 ar  
    14     6    15 ar  
    15     6    18 1   
    16     7    13 ar  
    17     7    15 ar  
    18     7    29 1   
    19     8    14 ar  
    20     8    30 1   
    21     9    11 1   
    22     9    27 1   
    23     9    33 1   
    24     9    34 1   
    25    10    29 1   
    26    10    35 1   
    27    10    36 1   
    28    10    37 1   
    29    11    22 1   
    30    11    23 1   
    31    11    38 1   
    32    12    16 ar  
    33    12    39 1   
    34    13    14 ar  
    35    13    40 1   
    36    14    41 1   
    37    15    42 1   
    38    16    17 ar  
    39    16    25 1   
    40    17    26 1   
    41    18    24 2   
    42    18    26 1   
    43    19    26 1   
    44    20    27 1   
    45    20    28 2   
    46    21    43 1   
    47    21    44 1   
    48    21    45 1   
    49    22    46 1   
    50    22    47 1   
    51    22    48 1   
    52    23    49 1   
    53    23    50 1   
    54    23    51 1   
    55    27    52 1   
@<TRIPOS>SUBSTRUCTURE
     1 EP7         1 TEMP              0 ****  ****    0 ROOT
