@<TRIPOS>MOLECULE
EP7
   52    55     1     0     0
SMALL
No Charge or Current Charge


@<TRIPOS>ATOM
      1 C4          -0.2950     0.6920     0.4890 ca         1 EP7      -0.059000
      2 C5          -1.5880     1.2520     0.4040 ca         1 EP7      -0.130600
      3 C6          -1.7070     2.6530     0.2680 ca         1 EP7      -0.096000
      4 C8           3.0030     3.2520     0.5370 cc         1 EP7       0.446300
      5 N12          4.3200     1.1170     0.7260 nd         1 EP7      -0.063000
      6 C15          1.9410    -1.5350     0.1130 ca         1 EP7      -0.074900
      7 C17          1.3120    -3.8050     0.7880 ca         1 EP7       0.143100
      8 C20          1.2690    -1.7250    -1.1160 ca         1 EP7       0.100000
      9 C24         -5.3110     0.2220     0.3990 c3         1 EP7       0.100000
     10 C26          0.7280    -6.0660     1.5890 c3         1 EP7       0.147900
     11 C28         -6.4770     1.0770    -0.1530 c3         1 EP7      -0.077700
     12 C1          -0.5610     3.4640     0.2500 ca         1 EP7      -0.068000
     13 C18          0.6190    -3.9740    -0.4280 ca         1 EP7      -0.174000
     14 C19          0.6060    -2.9360    -1.3770 ca         1 EP7      -0.057000
     15 C16          1.9740    -2.5930     1.0460 ca         1 EP7      -0.106000
     16 C2           0.7290     2.9140     0.3400 ca         1 EP7       0.253000
     17 C3           0.8640     1.5020     0.4150 ca         1 EP7      -0.052000
     18 C14          2.6550    -0.2930     0.4110 cc         1 EP7       0.394400
     19 C9           3.2190     1.8340     0.5910 cc         1 EP7      -0.175000
     20 C11         -2.7980     0.3370     0.4620 c          1 EP7       0.611700
     21 C27          4.2090     4.1420     0.6450 c3         1 EP7      -0.147400
     22 C29         -6.2500     1.5070    -1.6230 c3         1 EP7      -0.087100
     23 C30         -7.8270     0.3420     0.0070 c3         1 EP7      -0.087100
     24 N13          3.9630    -0.2190     0.6260 nd         1 EP7      -0.347700
     25 N7           1.8090     3.8320     0.3820 nd         1 EP7      -0.665000
     26 N10          2.1650     0.9970     0.4610 na         1 EP7       0.032200
     27 N23         -4.0340     0.9400     0.3840 ns         1 EP7      -0.497900
     28 O22         -2.6930    -0.8770     0.5730 o          1 EP7      -0.597100
     29 O25          1.3730    -4.7900     1.7530 os         1 EP7      -0.335100
     30 Cl1          1.2680    -0.4790    -2.3630 cl         1 EP7      -0.183000
     31 H1          -0.2130    -0.3800     0.6260 ha         1 EP7       0.156000
     32 H2          -2.6770     3.1370     0.1970 ha         1 EP7       0.123000
     33 H3          -5.5290    -0.0720     1.4350 h1         1 EP7       0.055200
     34 H4          -5.2170    -0.6940    -0.2010 h1         1 EP7       0.055200
     35 H5          -0.3560    -5.9420     1.4680 h1         1 EP7       0.044700
     36 H6           1.1230    -6.5940     0.7120 h1         1 EP7       0.044700
     37 H7           0.9020    -6.6950     2.4700 h1         1 EP7       0.044700
     38 H8          -6.5340     1.9900     0.4530 hc         1 EP7       0.042700
     39 H9          -0.6740     4.5420     0.1780 ha         1 EP7       0.140000
     40 H10          0.0970    -4.8980    -0.6600 ha         1 EP7       0.125000
     41 H11          0.0870    -3.0720    -2.3230 ha         1 EP7       0.135000
     42 H12          2.5090    -2.4720     1.9860 ha         1 EP7       0.143000
     43 H13          3.9350     5.2020     0.6000 hc         1 EP7       0.068033
     44 H14          4.7310     3.9700     1.5930 hc         1 EP7       0.068033
     45 H15          4.9100     3.9410    -0.1730 hc         1 EP7       0.068033
     46 H16         -7.0900     2.1140    -1.9820 hc         1 EP7       0.037033
     47 H17         -5.3390     2.1090    -1.7240 hc         1 EP7       0.037033
     48 H18         -6.1570     0.6310    -2.2760 hc         1 EP7       0.037033
     49 H19         -8.0070     0.0860     1.0590 hc         1 EP7       0.037033
     50 H20         -8.6560     0.9730    -0.3330 hc         1 EP7       0.037033
     51 H21         -7.8380    -0.5860    -0.5780 hc         1 EP7       0.037033
     52 H22         -4.0510     1.9470     0.3000 hn         1 EP7       0.314500
@<TRIPOS>BOND
     1     1     2 ar  
     2     1    17 ar  
     3     1    31 1   
     4     2     3 ar  
     5     2    20 1   
     6     3    12 ar  
     7     3    32 1   
     8     4    19 1   
     9     4    21 1   
    10     4    25 2   
    11     5    19 2   
    12     5    24 1   
    13     6     8 ar  
    14     6    15 ar  
    15     6    18 1   
    16     7    13 ar  
    17     7    15 ar  
    18     7    29 1   
    19     8    14 ar  
    20     8    30 1   
    21     9    11 1   
    22     9    27 1   
    23     9    33 1   
    24     9    34 1   
    25    10    29 1   
    26    10    35 1   
    27    10    36 1   
    28    10    37 1   
    29    11    22 1   
    30    11    23 1   
    31    11    38 1   
    32    12    16 ar  
    33    12    39 1   
    34    13    14 ar  
    35    13    40 1   
    36    14    41 1   
    37    15    42 1   
    38    16    17 ar  
    39    16    25 1   
    40    17    26 1   
    41    18    24 2   
    42    18    26 1   
    43    19    26 1   
    44    20    27 1   
    45    20    28 2   
    46    21    43 1   
    47    21    44 1   
    48    21    45 1   
    49    22    46 1   
    50    22    47 1   
    51    22    48 1   
    52    23    49 1   
    53    23    50 1   
    54    23    51 1   
    55    27    52 1   
@<TRIPOS>SUBSTRUCTURE
     1 EP7         1 TEMP              0 ****  ****    0 ROOT
