@<TRIPOS>MOLECULE
EP8
   45    48     1     0     0
SMALL
abcg2


@<TRIPOS>ATOM
      1 C10         -1.9350    -1.2530    -1.1390 c3         1 EP8      -0.004200
      2 C15          3.5710    -1.5760    -0.0350 cc         1 EP8      -0.229600
      3 C20          3.2520     2.8690    -0.7980 ca         1 EP8      -0.112000
      4 C21          2.7730     4.1690    -0.7350 ca         1 EP8      -0.112000
      5 C22          1.8660     4.5350     0.2510 ca         1 EP8      -0.138000
      6 C24          1.9380     2.2960     1.1410 ca         1 EP8      -0.112000
      7 C01         -4.9030     2.1480     0.0100 ca         1 EP8      -0.152000
      8 C02         -3.9000     1.2820    -0.3780 ca         1 EP8      -0.050000
      9 C03         -4.1340    -0.0970    -0.3240 ca         1 EP8      -0.094800
     10 C04         -5.3900    -0.5640     0.1250 ca         1 EP8      -0.049200
     11 C05         -6.4060     0.3070     0.5180 ca         1 EP8      -0.137000
     12 C06         -6.1450     1.6630     0.4550 ca         1 EP8      -0.098000
     13 N07         -5.3580    -1.9250     0.0740 na         1 EP8      -0.229700
     14 C08         -4.1370    -2.3320    -0.3900 cc         1 EP8      -0.162100
     15 C09         -3.3450    -1.2490    -0.6500 cd         1 EP8      -0.120400
     16 C11         -0.9270    -0.9120    -0.0390 c3         1 EP8      -0.076400
     17 C12          0.4850    -0.8980    -0.5800 c3         1 EP8       0.167600
     18 O13          1.3720    -0.5540     0.4940 os         1 EP8      -0.333100
     19 C14          2.6680    -0.5560     0.1940 cd         1 EP8       0.050100
     20 C16          4.7720    -0.8890    -0.2990 cc         1 EP8       0.276900
     21 N17          4.6350     0.4160    -0.2410 nd         1 EP8      -0.568800
     22 N18          3.3410     0.6190     0.0630 na         1 EP8       0.161000
     23 C19          2.8320     1.9320     0.1400 ca         1 EP8       0.052800
     24 C23          1.4530     3.5950     1.1850 ca         1 EP8      -0.112000
     25 O26          2.2210    -3.4740     0.2630 o          1 EP8      -0.723000
     26 O27          4.3840    -3.7500    -0.2180 o          1 EP8      -0.723000
     27 H101        -1.6940    -2.2320    -1.5600 hc         1 EP8       0.044700
     28 H102        -1.8300    -0.5330    -1.9580 hc         1 EP8       0.044700
     29 H201         3.9500     2.5830    -1.5740 ha         1 EP8       0.135500
     30 H211         3.1040     4.8940    -1.4660 ha         1 EP8       0.102500
     31 H221         1.4880     5.5480     0.2940 ha         1 EP8       0.099000
     32 H241         1.6290     1.5830     1.8920 ha         1 EP8       0.135500
     33 H011        -4.7350     3.2160    -0.0280 ha         1 EP8       0.105000
     34 H021        -2.9470     1.6650    -0.7250 ha         1 EP8       0.120000
     35 H051        -7.3640    -0.0630     0.8600 ha         1 EP8       0.104000
     36 H061        -6.9130     2.3650     0.7530 ha         1 EP8       0.100000
     37 H1          -6.1130    -2.5410     0.3240 hn         1 EP8       0.343000
     38 H081        -3.9160    -3.3820    -0.5040 h4         1 EP8       0.216000
     39 H111        -1.1660     0.0630     0.3940 hc         1 EP8       0.053700
     40 H112        -1.0050    -1.6490     0.7640 hc         1 EP8       0.053700
     41 H121         0.7600    -1.8770    -0.9770 h1         1 EP8       0.046200
     42 H122         0.5820    -0.1580    -1.3810 h1         1 EP8       0.046200
     43 H161         5.7370    -1.3200    -0.5170 h4         1 EP8       0.038100
     44 H231         0.7570     3.8730     1.9660 ha         1 EP8       0.102500
     45 C25          3.3690    -3.0600     0.0060 c          1 EP8       0.741600
@<TRIPOS>BOND
     1     1    15 1   
     2     1    16 1   
     3     1    27 1   
     4     1    28 1   
     5     2    19 2   
     6     2    20 1   
     7     2    45 1   
     8     3     4 ar  
     9     3    23 ar  
    10     3    29 1   
    11     4     5 ar  
    12     4    30 1   
    13     5    24 ar  
    14     5    31 1   
    15     6    23 ar  
    16     6    24 ar  
    17     6    32 1   
    18     7     8 ar  
    19     7    12 ar  
    20     7    33 1   
    21     8     9 ar  
    22     8    34 1   
    23     9    10 ar  
    24     9    15 1   
    25    10    11 ar  
    26    10    13 1   
    27    11    12 ar  
    28    11    35 1   
    29    12    36 1   
    30    13    14 1   
    31    13    37 1   
    32    14    15 2   
    33    14    38 1   
    34    16    17 1   
    35    16    39 1   
    36    16    40 1   
    37    17    18 1   
    38    17    41 1   
    39    17    42 1   
    40    18    19 1   
    41    19    22 1   
    42    20    21 2   
    43    20    43 1   
    44    21    22 1   
    45    22    23 1   
    46    24    44 1   
    47    25    45 1   
    48    26    45 1   
@<TRIPOS>SUBSTRUCTURE
     1 EP8         1 TEMP              0 ****  ****    0 ROOT
