@<TRIPOS>MOLECULE
EP8
   45    48     1     0     0
SMALL
No Charge or Current Charge


@<TRIPOS>ATOM
      1 C10         -2.0200    -1.7410    -0.5300 c3         1 EP8      -0.004200
      2 C15          3.6290    -1.0660    -0.8630 cc         1 EP8      -0.229600
      3 C20          2.2210     2.9180     0.0960 ca         1 EP8      -0.112000
      4 C21          1.6000     3.9910     0.7600 ca         1 EP8      -0.112000
      5 C22          1.6850     4.0940     2.1590 ca         1 EP8      -0.138000
      6 C24          3.0120     2.0540     2.2300 ca         1 EP8      -0.112000
      7 C01         -4.9460     1.3750    -2.3560 ca         1 EP8      -0.152000
      8 C02         -3.9410     0.4740    -1.9410 ca         1 EP8      -0.050000
      9 C03         -4.1960    -0.3030    -0.8020 ca         1 EP8      -0.094800
     10 C04         -5.3680    -0.2080    -0.1070 ca         1 EP8      -0.049200
     11 C05         -6.3840     0.6750    -0.4940 ca         1 EP8      -0.137000
     12 C06         -6.1620     1.4750    -1.6360 ca         1 EP8      -0.098000
     13 N07         -5.3370    -1.0890     0.9590 na         1 EP8      -0.229700
     14 C08         -4.1110    -1.7880     0.9720 cc         1 EP8      -0.162100
     15 C09         -3.4020    -1.2990    -0.1200 cd         1 EP8      -0.120400
     16 C11         -0.9350    -0.7210    -0.1270 c3         1 EP8      -0.076400
     17 C12          0.4830    -1.1560    -0.5410 c3         1 EP8       0.167600
     18 O13          1.3820    -0.1250    -0.1180 os         1 EP8      -0.333100
     19 C14          2.7500    -0.1670    -0.3000 cd         1 EP8       0.050100
     20 C16          4.8980    -0.4670    -0.6670 cc         1 EP8       0.276900
     21 N17          4.9000     0.7030    -0.0420 nd         1 EP8      -0.568800
     22 N18          3.5480     0.8770     0.1710 na         1 EP8       0.161000
     23 C19          2.9270     1.9430     0.8280 ca         1 EP8       0.052800
     24 C23          2.3910     3.1270     2.8940 ca         1 EP8      -0.112000
     25 O26          2.3990    -2.8860    -1.7220 o          1 EP8      -0.723000
     26 O27          4.5150    -2.9220    -1.9250 o          1 EP8      -0.723000
     27 H101        -1.7870    -2.7110    -0.0740 hc         1 EP8       0.044700
     28 H102        -1.9860    -1.8940    -1.6160 hc         1 EP8       0.044700
     29 H201         2.1530     2.8400    -0.9870 ha         1 EP8       0.135500
     30 H211         1.0540     4.7400     0.1910 ha         1 EP8       0.102500
     31 H221         1.2040     4.9240     2.6730 ha         1 EP8       0.099000
     32 H241         3.5590     1.3070     2.8010 ha         1 EP8       0.135500
     33 H011        -4.7850     1.9950    -3.2350 ha         1 EP8       0.105000
     34 H021        -3.0030     0.3880    -2.4850 ha         1 EP8       0.120000
     35 H051        -7.3140     0.7440     0.0660 ha         1 EP8       0.104000
     36 H061        -6.9300     2.1720    -1.9650 ha         1 EP8       0.100000
     37 H1          -6.0900    -1.2110     1.6300 hn         1 EP8       0.343000
     38 H081        -3.8540    -2.5350     1.7180 h4         1 EP8       0.216000
     39 H111        -1.1610     0.2490    -0.5860 hc         1 EP8       0.053700
     40 H112        -0.9640    -0.5770     0.9600 hc         1 EP8       0.053700
     41 H121         0.7220    -2.1080    -0.0500 h1         1 EP8       0.046200
     42 H122         0.5140    -1.2760    -1.6310 h1         1 EP8       0.046200
     43 H161         5.8550    -0.8700    -0.9710 h4         1 EP8       0.038100
     44 H231         2.4580     3.2080     3.9770 ha         1 EP8       0.102500
     45 C25          3.4900    -2.3760    -1.5440 c          1 EP8       0.741600
@<TRIPOS>BOND
     1     1    15 1   
     2     1    16 1   
     3     1    27 1   
     4     1    28 1   
     5     2    19 2   
     6     2    20 1   
     7     2    45 1   
     8     3     4 ar  
     9     3    23 ar  
    10     3    29 1   
    11     4     5 ar  
    12     4    30 1   
    13     5    24 ar  
    14     5    31 1   
    15     6    23 ar  
    16     6    24 ar  
    17     6    32 1   
    18     7     8 ar  
    19     7    12 ar  
    20     7    33 1   
    21     8     9 ar  
    22     8    34 1   
    23     9    10 ar  
    24     9    15 1   
    25    10    11 ar  
    26    10    13 1   
    27    11    12 ar  
    28    11    35 1   
    29    12    36 1   
    30    13    14 1   
    31    13    37 1   
    32    14    15 2   
    33    14    38 1   
    34    16    17 1   
    35    16    39 1   
    36    16    40 1   
    37    17    18 1   
    38    17    41 1   
    39    17    42 1   
    40    18    19 1   
    41    19    22 1   
    42    20    21 2   
    43    20    43 1   
    44    21    22 1   
    45    22    23 1   
    46    24    44 1   
    47    25    45 1   
    48    26    45 1   
@<TRIPOS>SUBSTRUCTURE
     1 EP8         1 TEMP              0 ****  ****    0 ROOT
