@<TRIPOS>MOLECULE
EP9
   81    82     1     0     0
SMALL
No Charge or Current Charge


@<TRIPOS>ATOM
      1 C15          4.1160    -0.5060     0.4660 c          1 EP9       0.641100
      2 O5           4.3520    -1.6580     0.7930 o          1 EP9      -0.549000
      3 O4           5.0410     0.4350     0.1390 os         1 EP9      -0.453100
      4 C16          6.4240     0.0520     0.1990 c3         1 EP9       0.230900
      5 C17          7.2720     1.2530    -0.1990 ca         1 EP9      -0.101300
      6 C18          7.7030     2.1740     0.7770 ca         1 EP9      -0.084500
      7 C19          8.4870     3.2820     0.4090 ca         1 EP9      -0.115500
      8 C20          8.8430     3.4770    -0.9360 ca         1 EP9      -0.099000
      9 C21          8.4140     2.5640    -1.9140 ca         1 EP9      -0.115500
     10 C22          7.6300     1.4550    -1.5470 ca         1 EP9      -0.084500
     11 N3           2.8710     0.0400     0.3390 ns         1 EP9      -0.477900
     12 C14          1.5940    -0.6610     0.5950 c3         1 EP9       0.052700
     13 C13          0.5470    -0.2650    -0.4850 c          1 EP9       0.591100
     14 O6           0.6650     0.7190    -1.2050 o          1 EP9      -0.601100
     15 C23          1.0590    -0.3430     2.0220 c3         1 EP9      -0.092400
     16 C24          1.8950    -0.9050     3.2070 c3         1 EP9      -0.054700
     17 C25          1.3900    -0.3370     4.5530 c3         1 EP9      -0.090600
     18 C26          1.9100    -2.4520     3.2430 c3         1 EP9      -0.090600
     19 N2          -0.5400    -1.1110    -0.5720 ns         1 EP9      -0.486900
     20 C12         -1.7010    -0.9260    -1.4710 c3         1 EP9       0.032700
     21 C11         -3.0110    -1.1920    -0.6820 c          1 EP9       0.583100
     22 O7          -3.0530    -1.8770     0.3330 o          1 EP9      -0.596100
     23 C27         -1.6050    -1.8570    -2.7120 c3         1 EP9      -0.080400
     24 C28         -0.4400    -1.5580    -3.6970 c3         1 EP9      -0.061700
     25 C29         -0.3020    -2.6860    -4.7450 c3         1 EP9      -0.089600
     26 C30         -0.5910    -0.1850    -4.3960 c3         1 EP9      -0.089600
     27 C1          -6.6090    -0.8810    -1.4430 c3         1 EP9       0.041300
     28 O1          -7.8650    -0.8500    -0.7100 oh         1 EP9      -0.637000
     29 C2          -6.3680    -2.2630    -2.1140 c          1 EP9       0.547900
     30 C3          -5.4290    -0.4830    -0.5100 c3         1 EP9       0.077700
     31 C4          -5.5790     0.9320     0.1120 c3         1 EP9      -0.036100
     32 C5          -4.3910     1.3210     0.9910 ca         1 EP9      -0.124300
     33 C6          -4.3160     0.8620     2.3200 ca         1 EP9      -0.064000
     34 C7          -3.2150     1.2010     3.1270 ca         1 EP9      -0.170000
     35 C8          -2.1810     1.9940     2.6050 ca         1 EP9       0.134100
     36 O3          -1.1160     2.3340     3.3840 oh         1 EP9      -0.537100
     37 C9          -2.2440     2.4460     1.2790 ca         1 EP9      -0.170000
     38 C10         -3.3480     2.1150     0.4730 ca         1 EP9      -0.064000
     39 N1          -4.1350    -0.5800    -1.2030 ns         1 EP9      -0.505900
     40 H16          6.6950    -0.2680     1.2140 h1         1 EP9       0.056700
     41 H17          6.6270    -0.7840    -0.4840 h1         1 EP9       0.056700
     42 H18          7.4300     2.0310     1.8210 ha         1 EP9       0.115000
     43 H19          8.8170     3.9890     1.1670 ha         1 EP9       0.114000
     44 H20          9.4490     4.3350    -1.2200 ha         1 EP9       0.113000
     45 H21          8.6870     2.7150    -2.9560 ha         1 EP9       0.114000
     46 H22          7.3000     0.7540    -2.3110 ha         1 EP9       0.115000
     47 H15          2.8420     0.9970     0.0090 hn         1 EP9       0.337500
     48 H14          1.7500    -1.7410     0.4900 h1         1 EP9       0.079700
     49 H23          0.9850     0.7480     2.1210 hc         1 EP9       0.063700
     50 H24          0.0340    -0.7220     2.1160 hc         1 EP9       0.063700
     51 H25          2.9310    -0.5640     3.0880 hc         1 EP9       0.048700
     52 H26          0.3510    -0.6350     4.7390 hc         1 EP9       0.035200
     53 H27          2.0060    -0.7020     5.3830 hc         1 EP9       0.035200
     54 H28          1.4400     0.7590     4.5550 hc         1 EP9       0.035200
     55 H29          0.8930    -2.8510     3.3340 hc         1 EP9       0.035200
     56 H30          2.3630    -2.8700     2.3380 hc         1 EP9       0.035200
     57 H31          2.4940    -2.8110     4.0990 hc         1 EP9       0.035200
     58 H13         -0.5730    -1.8820     0.0860 hn         1 EP9       0.328500
     59 H12         -1.7440     0.1210    -1.7960 h1         1 EP9       0.089700
     60 H32         -1.5170    -2.8910    -2.3560 hc         1 EP9       0.048200
     61 H33         -2.5490    -1.8080    -3.2690 hc         1 EP9       0.048200
     62 H34          0.4960    -1.5390    -3.1260 hc         1 EP9       0.066700
     63 H35         -1.2090    -2.7640    -5.3580 hc         1 EP9       0.034700
     64 H36          0.5470    -2.4940    -5.4120 hc         1 EP9       0.034700
     65 H37         -0.1340    -3.6530    -4.2560 hc         1 EP9       0.034700
     66 H38         -1.5250    -0.1390    -4.9700 hc         1 EP9       0.034700
     67 H39         -0.5940     0.6360    -3.6720 hc         1 EP9       0.034700
     68 H40          0.2420    -0.0110    -5.0880 hc         1 EP9       0.034700
     69 H3          -5.4270    -1.2000     0.3220 h1         1 EP9       0.090700
     70 H4          -5.7070     1.6650    -0.6940 hc         1 EP9       0.060700
     71 H5          -6.5010     0.9720     0.7050 hc         1 EP9       0.060700
     72 H6          -5.1110     0.2410     2.7290 ha         1 EP9       0.111500
     73 H7          -3.1720     0.8420     4.1520 ha         1 EP9       0.126500
     74 H8          -1.2650     1.9780     4.2850 ho         1 EP9       0.463000
     75 H9          -1.4410     3.0580     0.8760 ha         1 EP9       0.126500
     76 H10         -3.3880     2.4710    -0.5540 ha         1 EP9       0.111500
     77 H11         -3.9970    -0.0210    -2.0380 hn         1 EP9       0.313500
     78 H41         -8.3000    -1.7250    -0.8420 ho         1 EP9       0.462000
     79 H43         -6.6420    -0.1570    -2.2680 h1         1 EP9       0.085700
     80 H42         -5.4670    -2.3390    -2.7630 h4         1 EP9       0.003200
     81 O2          -7.1220    -3.2220    -1.9650 o          1 EP9      -0.504100
@<TRIPOS>BOND
     1     1     2 2   
     2     1     3 1   
     3     1    11 1   
     4     3     4 1   
     5     4     5 1   
     6     4    40 1   
     7     4    41 1   
     8     5     6 ar  
     9     5    10 ar  
    10     6     7 ar  
    11     6    42 1   
    12     7     8 ar  
    13     7    43 1   
    14     8     9 ar  
    15     8    44 1   
    16     9    10 ar  
    17     9    45 1   
    18    10    46 1   
    19    11    12 1   
    20    11    47 1   
    21    12    13 1   
    22    12    15 1   
    23    12    48 1   
    24    13    14 2   
    25    13    19 1   
    26    15    16 1   
    27    15    49 1   
    28    15    50 1   
    29    16    17 1   
    30    16    18 1   
    31    16    51 1   
    32    17    52 1   
    33    17    53 1   
    34    17    54 1   
    35    18    55 1   
    36    18    56 1   
    37    18    57 1   
    38    19    20 1   
    39    19    58 1   
    40    20    21 1   
    41    20    23 1   
    42    20    59 1   
    43    21    22 2   
    44    21    39 1   
    45    23    24 1   
    46    23    60 1   
    47    23    61 1   
    48    24    25 1   
    49    24    26 1   
    50    24    62 1   
    51    25    63 1   
    52    25    64 1   
    53    25    65 1   
    54    26    66 1   
    55    26    67 1   
    56    26    68 1   
    57    27    28 1   
    58    27    29 1   
    59    27    30 1   
    60    27    79 1   
    61    28    78 1   
    62    29    80 1   
    63    29    81 2   
    64    30    31 1   
    65    30    39 1   
    66    30    69 1   
    67    31    32 1   
    68    31    70 1   
    69    31    71 1   
    70    32    33 ar  
    71    32    38 ar  
    72    33    34 ar  
    73    33    72 1   
    74    34    35 ar  
    75    34    73 1   
    76    35    36 1   
    77    35    37 ar  
    78    36    74 1   
    79    37    38 ar  
    80    37    75 1   
    81    38    76 1   
    82    39    77 1   
@<TRIPOS>SUBSTRUCTURE
     1 EP9         1 TEMP              0 ****  ****    0 ROOT
