@<TRIPOS>MOLECULE
EP9
   81    82     1     0     0
SMALL
bcc


@<TRIPOS>ATOM
      1 C15          3.5320    -0.1150    -0.2780 c          1 EP9       0.757100
      2 O5           3.4210    -0.9520    -1.1500 o          1 EP9      -0.598000
      3 O4           4.5310     0.7690    -0.2060 os         1 EP9      -0.429900
      4 C16          5.5380     0.6940    -1.2220 c3         1 EP9       0.207700
      5 C17          6.6340     1.6350    -0.8250 ca         1 EP9      -0.101300
      6 C18          7.5700     1.2550     0.1340 ca         1 EP9      -0.102500
      7 C19          8.5780     2.1260     0.5190 ca         1 EP9      -0.133500
      8 C20          8.6610     3.3900    -0.0540 ca         1 EP9      -0.117000
      9 C21          7.7330     3.7760    -1.0110 ca         1 EP9      -0.133500
     10 C22          6.7230     2.9020    -1.3920 ca         1 EP9      -0.102500
     11 N3           2.6800     0.0240     0.7550 ns         1 EP9      -0.544900
     12 C14          1.4720    -0.7500     0.8060 c3         1 EP9       0.052700
     13 C13          0.5250    -0.3640    -0.3330 c          1 EP9       0.658100
     14 O6           0.5320     0.7470    -0.8340 o          1 EP9      -0.601100
     15 C23          0.7470    -0.5330     2.1370 c3         1 EP9      -0.092400
     16 C24          1.5780    -0.8370     3.3860 c3         1 EP9      -0.054700
     17 C25          0.7170    -0.6110     4.6250 c3         1 EP9      -0.090600
     18 C26          2.1430    -2.2530     3.3700 c3         1 EP9      -0.090600
     19 N2          -0.3240    -1.3470    -0.6770 ns         1 EP9      -0.553900
     20 C12         -1.4480    -1.1810    -1.5580 c3         1 EP9       0.032700
     21 C11         -2.7390    -1.2450    -0.7420 c          1 EP9       0.650100
     22 O7          -2.8480    -1.9810     0.2230 o          1 EP9      -0.596100
     23 C27         -1.4680    -2.2590    -2.6450 c3         1 EP9      -0.080400
     24 C28         -0.2290    -2.2650    -3.5420 c3         1 EP9      -0.061700
     25 C29         -0.2910    -3.4530    -4.4970 c3         1 EP9      -0.089600
     26 C30         -0.0720    -0.9610    -4.3190 c3         1 EP9      -0.089600
     27 C1          -6.1630    -0.7080    -1.4510 c3         1 EP9       0.018100
     28 O1          -7.4090    -0.4710    -0.8730 oh         1 EP9      -0.574800
     29 C2          -5.9800    -2.1600    -1.8270 c          1 EP9       0.547900
     30 C3          -4.9950    -0.2650    -0.5380 c3         1 EP9       0.077700
     31 C4          -5.1310     1.2020    -0.1120 c3         1 EP9      -0.036100
     32 C5          -4.0570     1.6000     0.8600 ca         1 EP9      -0.124300
     33 C6          -4.2600     1.4800     2.2310 ca         1 EP9      -0.082000
     34 C7          -3.2700     1.8080     3.1460 ca         1 EP9      -0.188000
     35 C8          -2.0350     2.2650     2.6950 ca         1 EP9       0.134100
     36 O3          -1.0340     2.6100     3.5340 oh         1 EP9      -0.498100
     37 C9          -1.8080     2.3800     1.3270 ca         1 EP9      -0.188000
     38 C10         -2.8110     2.0540     0.4300 ca         1 EP9      -0.082000
     39 N1          -3.7330    -0.4700    -1.2120 ns         1 EP9      -0.572900
     40 H16          5.9180    -0.3270    -1.3000 h1         1 EP9       0.056700
     41 H17          5.1170     0.9740    -2.1900 h1         1 EP9       0.056700
     42 H18          7.5140     0.2670     0.5770 ha         1 EP9       0.133000
     43 H19          9.3030     1.8190     1.2620 ha         1 EP9       0.132000
     44 H20          9.4480     4.0700     0.2450 ha         1 EP9       0.131000
     45 H21          7.7940     4.7590    -1.4610 ha         1 EP9       0.132000
     46 H22          6.0010     3.2060    -2.1400 ha         1 EP9       0.133000
     47 H15          2.7710     0.8230     1.3620 hn         1 EP9       0.337500
     48 H14          1.7230    -1.8100     0.7080 h1         1 EP9       0.079700
     49 H23          0.3820     0.4980     2.1820 hc         1 EP9       0.063700
     50 H24         -0.1410    -1.1710     2.1410 hc         1 EP9       0.063700
     51 H25          2.4160    -0.1340     3.4300 hc         1 EP9       0.048700
     52 H26         -0.1180    -1.3160     4.6540 hc         1 EP9       0.035200
     53 H27          1.2980    -0.7450     5.5390 hc         1 EP9       0.035200
     54 H28          0.2990     0.3960     4.6400 hc         1 EP9       0.035200
     55 H29          1.3450    -2.9890     3.2430 hc         1 EP9       0.035200
     56 H30          2.8670    -2.4020     2.5680 hc         1 EP9       0.035200
     57 H31          2.6520    -2.4760     4.3090 hc         1 EP9       0.035200
     58 H13         -0.2580    -2.2270    -0.1890 hn         1 EP9       0.328500
     59 H12         -1.3610    -0.1960    -2.0180 h1         1 EP9       0.089700
     60 H32         -1.5730    -3.2390    -2.1670 hc         1 EP9       0.048200
     61 H33         -2.3610    -2.1210    -3.2640 hc         1 EP9       0.048200
     62 H34          0.6520    -2.3860    -2.9020 hc         1 EP9       0.066700
     63 H35         -1.1550    -3.3740    -5.1600 hc         1 EP9       0.034700
     64 H36          0.6030    -3.5010    -5.1210 hc         1 EP9       0.034700
     65 H37         -0.3700    -4.3970    -3.9570 hc         1 EP9       0.034700
     66 H38         -0.9410    -0.7810    -4.9590 hc         1 EP9       0.034700
     67 H39          0.0470    -0.0980    -3.6630 hc         1 EP9       0.034700
     68 H40          0.8070    -1.0000    -4.9640 hc         1 EP9       0.034700
     69 H3          -4.9920    -0.8940     0.3550 h1         1 EP9       0.090700
     70 H4          -5.0960     1.8350    -1.0050 hc         1 EP9       0.060700
     71 H5          -6.1140     1.3470     0.3360 hc         1 EP9       0.060700
     72 H6          -5.2150     1.1230     2.6010 ha         1 EP9       0.129500
     73 H7          -3.4650     1.7120     4.2080 ha         1 EP9       0.144500
     74 H8          -1.3070     2.4870     4.4490 ho         1 EP9       0.424000
     75 H9          -0.8450     2.7200     0.9670 ha         1 EP9       0.144500
     76 H10         -2.6140     2.1670    -0.6290 ha         1 EP9       0.129500
     77 H11         -3.5280     0.1490    -1.9820 hn         1 EP9       0.313500
     78 H41         -7.5950    -1.1690    -0.2340 ho         1 EP9       0.423000
     79 H43         -6.1100    -0.1220    -2.3780 h1         1 EP9       0.085700
     80 H42         -5.1040    -2.3870    -2.4540 h4         1 EP9       0.003200
     81 O2          -6.7340    -3.0260    -1.4610 o          1 EP9      -0.504100
@<TRIPOS>BOND
     1     1     2 2   
     2     1     3 1   
     3     1    11 1   
     4     3     4 1   
     5     4     5 1   
     6     4    40 1   
     7     4    41 1   
     8     5     6 ar  
     9     5    10 ar  
    10     6     7 ar  
    11     6    42 1   
    12     7     8 ar  
    13     7    43 1   
    14     8     9 ar  
    15     8    44 1   
    16     9    10 ar  
    17     9    45 1   
    18    10    46 1   
    19    11    12 1   
    20    11    47 1   
    21    12    13 1   
    22    12    15 1   
    23    12    48 1   
    24    13    14 2   
    25    13    19 1   
    26    15    16 1   
    27    15    49 1   
    28    15    50 1   
    29    16    17 1   
    30    16    18 1   
    31    16    51 1   
    32    17    52 1   
    33    17    53 1   
    34    17    54 1   
    35    18    55 1   
    36    18    56 1   
    37    18    57 1   
    38    19    20 1   
    39    19    58 1   
    40    20    21 1   
    41    20    23 1   
    42    20    59 1   
    43    21    22 2   
    44    21    39 1   
    45    23    24 1   
    46    23    60 1   
    47    23    61 1   
    48    24    25 1   
    49    24    26 1   
    50    24    62 1   
    51    25    63 1   
    52    25    64 1   
    53    25    65 1   
    54    26    66 1   
    55    26    67 1   
    56    26    68 1   
    57    27    28 1   
    58    27    29 1   
    59    27    30 1   
    60    27    79 1   
    61    28    78 1   
    62    29    80 1   
    63    29    81 2   
    64    30    31 1   
    65    30    39 1   
    66    30    69 1   
    67    31    32 1   
    68    31    70 1   
    69    31    71 1   
    70    32    33 ar  
    71    32    38 ar  
    72    33    34 ar  
    73    33    72 1   
    74    34    35 ar  
    75    34    73 1   
    76    35    36 1   
    77    35    37 ar  
    78    36    74 1   
    79    37    38 ar  
    80    37    75 1   
    81    38    76 1   
    82    39    77 1   
@<TRIPOS>SUBSTRUCTURE
     1 EP9         1 TEMP              0 ****  ****    0 ROOT
