@<TRIPOS>MOLECULE
EPA
   51    50     1     0     0
SMALL
abcg2


@<TRIPOS>ATOM
      1 C1          -0.7270    -1.1450    -8.9220 c          1 EPA       0.717000
      2 OA          -0.6350    -2.0950    -9.7290 o          1 EPA      -0.742000
      3 OB          -1.6060    -0.2610    -8.9230 o          1 EPA      -0.742000
      4 C2           0.3560    -1.0820    -7.8310 c3         1 EPA      -0.205400
      5 C3           0.2600     0.0850    -6.8620 c3         1 EPA      -0.048400
      6 C4           1.3770     0.0680    -5.8150 c3         1 EPA      -0.060200
      7 C5           1.3050     1.2480    -4.8970 c2         1 EPA      -0.177200
      8 C6           0.9330     1.2590    -3.6180 c2         1 EPA      -0.254200
      9 C7           0.5430     0.0760    -2.7770 c3         1 EPA      -0.010000
     10 C8           1.5770    -0.1760    -1.7180 c2         1 EPA      -0.187200
     11 C9           1.4490    -0.0200    -0.4010 c2         1 EPA      -0.243200
     12 C10          0.2230     0.4060     0.3540 c3         1 EPA      -0.009000
     13 C11         -0.2800    -0.7210     1.2090 c2         1 EPA      -0.196200
     14 C12         -0.2540    -0.8080     2.5380 c2         1 EPA      -0.233200
     15 C13          0.2490     0.2170     3.5140 c3         1 EPA      -0.010000
     16 C14         -0.8770     0.7300     4.3640 c2         1 EPA      -0.203200
     17 C15         -1.0670     0.5330     5.6680 c2         1 EPA      -0.225200
     18 C16         -0.1820    -0.2170     6.6210 c3         1 EPA      -0.011000
     19 C17          0.4160     0.7180     7.6330 c2         1 EPA      -0.207200
     20 C18          0.1540     0.7720     8.9380 c2         1 EPA      -0.225200
     21 C19         -0.7740    -0.1030     9.7230 c3         1 EPA      -0.043200
     22 C20         -0.0200    -0.9630    10.7370 c3         1 EPA      -0.085100
     23 H21          1.3370    -1.0730    -8.3210 hc         1 EPA       0.014700
     24 H22          0.3340    -2.0250    -7.2720 hc         1 EPA       0.014700
     25 H31         -0.7050     0.0680    -6.3480 hc         1 EPA       0.041200
     26 H32          0.2930     1.0290    -7.4110 hc         1 EPA       0.041200
     27 H41          2.3450     0.0740    -6.3280 hc         1 EPA       0.033200
     28 H42          1.3380    -0.8700    -5.2550 hc         1 EPA       0.033200
     29 H51          1.5580     2.2030    -5.3500 ha         1 EPA       0.159000
     30 H61          0.9220     2.2120    -3.0970 ha         1 EPA       0.153000
     31 H71          0.4360    -0.8180    -3.3960 hc         1 EPA       0.054200
     32 H72         -0.4360     0.2610    -2.3280 hc         1 EPA       0.054200
     33 H81          2.5440    -0.4980    -2.0950 ha         1 EPA       0.167000
     34 H91          2.3120    -0.2420     0.2200 ha         1 EPA       0.159000
     35 H101        -0.5670     0.7160    -0.3340 hc         1 EPA       0.049700
     36 H102         0.4630     1.2810     0.9620 hc         1 EPA       0.049700
     37 H111        -0.6810    -1.5670     0.6570 ha         1 EPA       0.172000
     38 H121        -0.6530    -1.7100     2.9920 ha         1 EPA       0.164000
     39 H131         0.7140     1.0550     2.9910 hc         1 EPA       0.049200
     40 H132         1.0310    -0.2330     4.1300 hc         1 EPA       0.049200
     41 H141        -1.6260     1.3050     3.8270 ha         1 EPA       0.170000
     42 H151        -1.9490     0.9760     6.1210 ha         1 EPA       0.165000
     43 H161         0.6230    -0.7250     6.0850 hc         1 EPA       0.050200
     44 H162        -0.7670    -0.9980     7.1130 hc         1 EPA       0.050200
     45 H171         1.1240     1.4350     7.2260 ha         1 EPA       0.168000
     46 H181         0.6790     1.5230     9.5230 ha         1 EPA       0.162000
     47 H191        -1.3650    -0.7410     9.0640 hc         1 EPA       0.043200
     48 H192        -1.4880     0.5320    10.2570 hc         1 EPA       0.043200
     49 H201        -0.7090    -1.5540    11.3410 hc         1 EPA       0.031367
     50 H202         0.6630    -1.6500    10.2360 hc         1 EPA       0.031367
     51 H203         0.5690    -0.3450    11.4160 hc         1 EPA       0.031367
@<TRIPOS>BOND
     1     1     2 1   
     2     1     3 1   
     3     1     4 1   
     4     4     5 1   
     5     4    23 1   
     6     4    24 1   
     7     5     6 1   
     8     5    25 1   
     9     5    26 1   
    10     6     7 1   
    11     6    27 1   
    12     6    28 1   
    13     7     8 2   
    14     7    29 1   
    15     8     9 1   
    16     8    30 1   
    17     9    10 1   
    18     9    31 1   
    19     9    32 1   
    20    10    11 2   
    21    10    33 1   
    22    11    12 1   
    23    11    34 1   
    24    12    13 1   
    25    12    35 1   
    26    12    36 1   
    27    13    14 2   
    28    13    37 1   
    29    14    15 1   
    30    14    38 1   
    31    15    16 1   
    32    15    39 1   
    33    15    40 1   
    34    16    17 2   
    35    16    41 1   
    36    17    18 1   
    37    17    42 1   
    38    18    19 1   
    39    18    43 1   
    40    18    44 1   
    41    19    20 2   
    42    19    45 1   
    43    20    21 1   
    44    20    46 1   
    45    21    22 1   
    46    21    47 1   
    47    21    48 1   
    48    22    49 1   
    49    22    50 1   
    50    22    51 1   
@<TRIPOS>SUBSTRUCTURE
     1 EPA         1 TEMP              0 ****  ****    0 ROOT
