@<TRIPOS>MOLECULE
EPA
   51    50     1     0     0
SMALL
No Charge or Current Charge


@<TRIPOS>ATOM
      1 C1          -1.9830     0.9710    -7.3020 c          1 EPA       0.717000
      2 OA          -1.9190     1.7190    -8.2660 o          1 EPA      -0.742000
      3 OB          -2.9130     0.9670    -6.5100 o          1 EPA      -0.742000
      4 C2          -0.7990     0.0230    -7.0380 c3         1 EPA      -0.205400
      5 C3           0.2550     0.7210    -6.1440 c3         1 EPA      -0.048400
      6 C4           1.4800    -0.1660    -5.8380 c3         1 EPA      -0.060200
      7 C5           2.5000     0.5430    -4.9660 c2         1 EPA      -0.177200
      8 C6           2.5530     0.5540    -3.6220 c2         1 EPA      -0.254200
      9 C7           1.5910    -0.1070    -2.6520 c3         1 EPA      -0.010000
     10 C8           2.3170    -1.1010    -1.7660 c2         1 EPA      -0.187200
     11 C9           2.0170    -1.4240    -0.4950 c2         1 EPA      -0.243200
     12 C10          0.8700    -0.8860     0.3410 c3         1 EPA      -0.009000
     13 C11          0.2500    -1.9860     1.1830 c2         1 EPA      -0.196200
     14 C12         -0.2420    -1.8740     2.4310 c2         1 EPA      -0.233200
     15 C13         -0.3120    -0.6180     3.2800 c3         1 EPA      -0.010000
     16 C14         -1.5850    -0.5920     4.1070 c2         1 EPA      -0.203200
     17 C15         -1.7200    -0.1670     5.3760 c2         1 EPA      -0.225200
     18 C16         -0.6350     0.4050     6.2690 c3         1 EPA      -0.011000
     19 C17         -1.2100     1.4350     7.2240 c2         1 EPA      -0.207200
     20 C18         -1.1760     1.4140     8.5690 c2         1 EPA      -0.225200
     21 C19         -0.5850     0.3350     9.4570 c3         1 EPA      -0.043200
     22 C20          0.9000     0.5910     9.7740 c3         1 EPA      -0.085100
     23 H21         -0.2840    -0.2180    -7.9770 hc         1 EPA       0.014700
     24 H22         -1.1310    -0.8600    -6.4780 hc         1 EPA       0.014700
     25 H31         -0.2150     1.0200    -5.1980 hc         1 EPA       0.041200
     26 H32          0.5930     1.6420    -6.6350 hc         1 EPA       0.041200
     27 H41          1.9530    -0.4670    -6.7820 hc         1 EPA       0.033200
     28 H42          1.1430    -1.0950    -5.3630 hc         1 EPA       0.033200
     29 H51          3.2620     1.0790    -5.5360 ha         1 EPA       0.159000
     30 H61          3.3530     1.1070    -3.1260 ha         1 EPA       0.153000
     31 H71          0.7790    -0.6190    -3.1810 hc         1 EPA       0.054200
     32 H72          1.1090     0.6690    -2.0460 hc         1 EPA       0.054200
     33 H81          3.1730    -1.5770    -2.2510 ha         1 EPA       0.167000
     34 H91          2.6390    -2.1520     0.0300 ha         1 EPA       0.159000
     35 H101         0.0950    -0.4470    -0.2980 hc         1 EPA       0.049700
     36 H102         1.2430    -0.0740     0.9760 hc         1 EPA       0.049700
     37 H111         0.2250    -2.9570     0.6850 ha         1 EPA       0.172000
     38 H121        -0.6500    -2.7600     2.9230 ha         1 EPA       0.164000
     39 H131        -0.2790     0.2790     2.6510 hc         1 EPA       0.049200
     40 H132         0.5720    -0.5760     3.9270 hc         1 EPA       0.049200
     41 H141        -2.4600    -0.9720     3.5750 ha         1 EPA       0.170000
     42 H151        -2.7010    -0.2150     5.8540 ha         1 EPA       0.165000
     43 H161         0.1490     0.8800     5.6670 hc         1 EPA       0.050200
     44 H162        -0.1420    -0.4100     6.8100 hc         1 EPA       0.050200
     45 H171        -1.6770     2.2800     6.7150 ha         1 EPA       0.168000
     46 H181        -1.6250     2.2390     9.1270 ha         1 EPA       0.162000
     47 H191        -0.6850    -0.6530     8.9930 hc         1 EPA       0.043200
     48 H192        -1.1460     0.2810    10.3980 hc         1 EPA       0.043200
     49 H201         1.2950    -0.2000    10.4220 hc         1 EPA       0.031367
     50 H202         1.4930     0.6090     8.8520 hc         1 EPA       0.031367
     51 H203         1.0260     1.5520    10.2860 hc         1 EPA       0.031367
@<TRIPOS>BOND
     1     1     2 1   
     2     1     3 1   
     3     1     4 1   
     4     4     5 1   
     5     4    23 1   
     6     4    24 1   
     7     5     6 1   
     8     5    25 1   
     9     5    26 1   
    10     6     7 1   
    11     6    27 1   
    12     6    28 1   
    13     7     8 2   
    14     7    29 1   
    15     8     9 1   
    16     8    30 1   
    17     9    10 1   
    18     9    31 1   
    19     9    32 1   
    20    10    11 2   
    21    10    33 1   
    22    11    12 1   
    23    11    34 1   
    24    12    13 1   
    25    12    35 1   
    26    12    36 1   
    27    13    14 2   
    28    13    37 1   
    29    14    15 1   
    30    14    38 1   
    31    15    16 1   
    32    15    39 1   
    33    15    40 1   
    34    16    17 2   
    35    16    41 1   
    36    17    18 1   
    37    17    42 1   
    38    18    19 1   
    39    18    43 1   
    40    18    44 1   
    41    19    20 2   
    42    19    45 1   
    43    20    21 1   
    44    20    46 1   
    45    21    22 1   
    46    21    47 1   
    47    21    48 1   
    48    22    49 1   
    49    22    50 1   
    50    22    51 1   
@<TRIPOS>SUBSTRUCTURE
     1 EPA         1 TEMP              0 ****  ****    0 ROOT
