@<TRIPOS>MOLECULE
EPB
   76    78     1     0     0
SMALL
No Charge or Current Charge


@<TRIPOS>ATOM
      1 O16          4.0270    36.7730    14.5070 o          1 EPB      -0.461000
      2 C51          9.8920    38.5570    16.0120 c3         1 EPB      -0.078100
      3 O41          8.7450    38.2730    18.2470 op         1 EPB      -0.452000
      4 C5           8.7950    38.9770    16.9870 cx         1 EPB       0.108000
      5 C4           7.7050    37.9700    17.2860 cx         1 EPB       0.100300
      6 C16          4.6180    37.8440    14.4470 c          1 EPB       0.600100
      7 O1           5.3250    38.3940    15.4920 os         1 EPB      -0.471100
      8 C2           5.1870    37.7750    16.7930 c3         1 EPB       0.202500
      9 C3           6.2860    38.3220    17.7340 c3         1 EPB      -0.067400
     10 C20          3.7860    38.0860    17.3300 c2         1 EPB      -0.085400
     11 C21          3.1240    36.8770    17.9820 c3         1 EPB      -0.063900
     12 C22          3.2310    39.3240    17.2090 ce         1 EPB      -0.265800
     13 C23          1.9200    39.8320    17.6090 cc         1 EPB       0.359800
     14 N26          0.9970    38.9990    18.1830 nc         1 EPB      -0.643000
     15 C25         -0.1120    39.6680    18.4550 cd         1 EPB       0.456700
     16 C27         -1.2920    38.9950    19.0920 c3         1 EPB      -0.128400
     17 C24          1.5110    41.1330    17.4420 cd         1 EPB      -0.284000
     18 S1          -0.1230    41.3730    18.0300 ss         1 EPB      -0.048400
     19 C15          4.7260    38.6720    13.1610 c3         1 EPB      -0.133400
     20 C14          3.5670    39.7020    13.0370 c3         1 EPB       0.189300
     21 O14          2.3290    39.0010    13.1840 oh         1 EPB      -0.654000
     22 C13          3.5260    40.5420    11.7010 c3         1 EPB      -0.173000
     23 C29          3.4200    39.6070    10.4480 c3         1 EPB      -0.083600
     24 C30          2.2670    41.4720    11.6750 c3         1 EPB      -0.083600
     25 C12          4.8080    41.4440    11.5840 c          1 EPB       0.565100
     26 O12          5.6010    41.2940    10.6590 o          1 EPB      -0.490100
     27 C11          5.0240    42.5640    12.6420 c3         1 EPB      -0.149700
     28 C28          4.9970    43.9780    12.0030 c3         1 EPB      -0.074100
     29 C10          6.2840    42.2720    13.5060 c3         1 EPB       0.180300
     30 O10          7.4650    42.5000    12.7310 oh         1 EPB      -0.652000
     31 C9           6.4130    43.0470    14.8640 c3         1 EPB      -0.089700
     32 C91          5.1120    43.0260    15.7130 c3         1 EPB      -0.090100
     33 C8           7.6200    42.5370    15.7160 c3         1 EPB      -0.078400
     34 C7           7.6610    40.9970    15.8880 c3         1 EPB      -0.085400
     35 C6           8.5580    40.4930    17.0380 c3         1 EPB      -0.059400
     36 H511         9.5360    38.6110    14.9760 hc         1 EPB       0.048033
     37 H512        10.7740    39.2020    16.0990 hc         1 EPB       0.048033
     38 H513        10.2170    37.5260    16.1980 hc         1 EPB       0.048033
     39 H3           5.3360    36.6890    16.7060 h1         1 EPB       0.079700
     40 H31          6.1220    37.8800    18.7240 hc         1 EPB       0.070700
     41 H32          6.1530    39.3990    17.8700 hc         1 EPB       0.070700
     42 H211         2.7360    37.1270    18.9760 hc         1 EPB       0.057033
     43 H212         2.2870    36.5150    17.3730 hc         1 EPB       0.057033
     44 H213         3.8140    36.0370    18.1230 hc         1 EPB       0.057033
     45 H22          3.8230    40.0980    16.7270 ha         1 EPB       0.174000
     46 H271        -2.1140    39.7030    19.2490 hc         1 EPB       0.060367
     47 H272        -1.6650    38.1820    18.4590 hc         1 EPB       0.060367
     48 H273        -1.0210    38.5720    20.0650 hc         1 EPB       0.060367
     49 H24          2.0700    41.9530    17.0110 h4         1 EPB       0.153000
     50 H151         5.6680    39.2250    13.1810 hc         1 EPB       0.084700
     51 H152         4.7040    37.9800    12.3150 hc         1 EPB       0.084700
     52 H14          3.6690    40.4000    13.8790 h1         1 EPB       0.036700
     53 H2           1.6130    39.6660    13.1230 ho         1 EPB       0.448000
     54 H291         3.3120    40.1990     9.5310 hc         1 EPB       0.045867
     55 H292         4.3120    38.9810    10.3270 hc         1 EPB       0.045867
     56 H293         2.5500    38.9420    10.5130 hc         1 EPB       0.045867
     57 H301         2.3370    42.1950    10.8530 hc         1 EPB       0.045867
     58 H302         1.3450    40.8970    11.5180 hc         1 EPB       0.045867
     59 H303         2.1430    42.0350    12.6080 hc         1 EPB       0.045867
     60 H11          4.1690    42.5190    13.3170 hc         1 EPB       0.053700
     61 H281         5.0910    44.7560    12.7690 hc         1 EPB       0.046033
     62 H282         5.8140    44.1060    11.2820 hc         1 EPB       0.046033
     63 H283         4.0510    44.1420    11.4730 hc         1 EPB       0.046033
     64 H1           6.2210    41.2090    13.7560 h1         1 EPB       0.029700
     65 H10          8.2290    42.3160    13.3160 ho         1 EPB       0.442000
     66 H9           6.6110    44.1010    14.6310 hc         1 EPB       0.064700
     67 H911         5.2880    43.4350    16.7150 hc         1 EPB       0.036033
     68 H912         4.3300    43.6420    15.2520 hc         1 EPB       0.036033
     69 H913         4.7280    42.0070    15.8220 hc         1 EPB       0.036033
     70 H81          8.5630    42.8690    15.2630 hc         1 EPB       0.045700
     71 H82          7.5860    43.0110    16.7060 hc         1 EPB       0.045700
     72 H71          6.6450    40.6270    16.0470 hc         1 EPB       0.045200
     73 H72          8.0120    40.5480    14.9510 hc         1 EPB       0.045200
     74 H61          8.1070    40.7780    17.9970 hc         1 EPB       0.054700
     75 H62          9.5210    41.0160    16.9930 hc         1 EPB       0.054700
     76 H4           7.7900    36.9780    16.8410 h1         1 EPB       0.082700
@<TRIPOS>BOND
     1     1     6 2   
     2     2     4 1   
     3     2    36 1   
     4     2    37 1   
     5     2    38 1   
     6     3     4 1   
     7     3     5 1   
     8     4     5 1   
     9     4    35 1   
    10     5     9 1   
    11     5    76 1   
    12     6     7 1   
    13     6    19 1   
    14     7     8 1   
    15     8     9 1   
    16     8    10 1   
    17     8    39 1   
    18     9    40 1   
    19     9    41 1   
    20    10    11 1   
    21    10    12 2   
    22    11    42 1   
    23    11    43 1   
    24    11    44 1   
    25    12    13 1   
    26    12    45 1   
    27    13    14 1   
    28    13    17 2   
    29    14    15 2   
    30    15    16 1   
    31    15    18 1   
    32    16    46 1   
    33    16    47 1   
    34    16    48 1   
    35    17    18 1   
    36    17    49 1   
    37    19    20 1   
    38    19    50 1   
    39    19    51 1   
    40    20    21 1   
    41    20    22 1   
    42    20    52 1   
    43    21    53 1   
    44    22    23 1   
    45    22    24 1   
    46    22    25 1   
    47    23    54 1   
    48    23    55 1   
    49    23    56 1   
    50    24    57 1   
    51    24    58 1   
    52    24    59 1   
    53    25    26 2   
    54    25    27 1   
    55    27    28 1   
    56    27    29 1   
    57    27    60 1   
    58    28    61 1   
    59    28    62 1   
    60    28    63 1   
    61    29    30 1   
    62    29    31 1   
    63    29    64 1   
    64    30    65 1   
    65    31    32 1   
    66    31    33 1   
    67    31    66 1   
    68    32    67 1   
    69    32    68 1   
    70    32    69 1   
    71    33    34 1   
    72    33    70 1   
    73    33    71 1   
    74    34    35 1   
    75    34    72 1   
    76    34    73 1   
    77    35    74 1   
    78    35    75 1   
@<TRIPOS>SUBSTRUCTURE
     1 EPB         1 TEMP              0 ****  ****    0 ROOT
