@<TRIPOS>MOLECULE
EPB
   76    78     1     0     0
SMALL
abcg2


@<TRIPOS>ATOM
      1 O16          4.6700    36.6710    14.3380 o          1 EPB      -0.461000
      2 C51          9.8380    38.4280    15.9610 c3         1 EPB      -0.078100
      3 O41          8.7170    38.2570    18.1700 op         1 EPB      -0.452000
      4 C5           8.7470    38.9220    16.8770 cx         1 EPB       0.108000
      5 C4           7.6500    38.0080    17.2290 cx         1 EPB       0.100300
      6 C16          4.9670    37.8430    14.3240 c          1 EPB       0.600100
      7 O1           5.3610    38.5250    15.4140 os         1 EPB      -0.471100
      8 C2           5.1820    37.8870    16.7070 c3         1 EPB       0.202500
      9 C3           6.2600    38.4190    17.6470 c3         1 EPB      -0.067400
     10 C20          3.7830    38.1370    17.2390 c2         1 EPB      -0.085400
     11 C21          3.2880    37.0790    18.1760 c3         1 EPB      -0.063900
     12 C22          3.1340    39.2440    16.8550 ce         1 EPB      -0.265800
     13 C23          1.8060    39.7440    17.1710 cc         1 EPB       0.359800
     14 N26          0.9140    39.1290    18.0320 nc         1 EPB      -0.643000
     15 C25         -0.2090    39.7760    18.1270 cd         1 EPB       0.456700
     16 C27         -1.3540    39.3690    18.9930 c3         1 EPB      -0.128400
     17 C24          1.3240    40.8990    16.6020 cd         1 EPB      -0.284000
     18 S1          -0.2690    41.2180    17.1490 ss         1 EPB      -0.048400
     19 C15          4.9140    38.7170    13.0930 c3         1 EPB      -0.133400
     20 C14          3.7400    39.6980    13.1810 c3         1 EPB       0.189300
     21 O14          2.5830    38.9030    13.4510 oh         1 EPB      -0.654000
     22 C13          3.5330    40.5610    11.8990 c3         1 EPB      -0.173000
     23 C29          3.4180    39.6860    10.6510 c3         1 EPB      -0.083600
     24 C30          2.2230    41.3690    12.0670 c3         1 EPB      -0.083600
     25 C12          4.6570    41.5990    11.7210 c          1 EPB       0.565100
     26 O12          5.2860    41.6540    10.6830 o          1 EPB      -0.490100
     27 C11          4.9040    42.6100    12.8400 c3         1 EPB      -0.149700
     28 C28          4.8840    44.0410    12.2980 c3         1 EPB      -0.074100
     29 C10          6.2020    42.2580    13.5930 c3         1 EPB       0.180300
     30 O10          7.3150    42.5610    12.7440 oh         1 EPB      -0.652000
     31 C9           6.3530    42.9580    14.9570 c3         1 EPB      -0.089700
     32 C91          5.1300    42.7650    15.8600 c3         1 EPB      -0.090100
     33 C8           7.6290    42.4640    15.6750 c3         1 EPB      -0.078400
     34 C7           7.7540    40.9370    15.7270 c3         1 EPB      -0.085400
     35 C6           8.5580    40.4230    16.9190 c3         1 EPB      -0.059400
     36 H511         9.6520    38.7540    14.9360 hc         1 EPB       0.048033
     37 H512        10.8030    38.8340    16.2740 hc         1 EPB       0.048033
     38 H513         9.8930    37.3390    15.9730 hc         1 EPB       0.048033
     39 H3           5.3220    36.8150    16.5690 h1         1 EPB       0.079700
     40 H31          6.0640    37.9900    18.6340 hc         1 EPB       0.070700
     41 H32          6.1630    39.5000    17.7450 hc         1 EPB       0.070700
     42 H211         2.3210    37.3340    18.5960 hc         1 EPB       0.057033
     43 H212         3.2090    36.1240    17.6480 hc         1 EPB       0.057033
     44 H213         4.0000    36.9250    18.9930 hc         1 EPB       0.057033
     45 H22          3.6570    39.8960    16.1690 ha         1 EPB       0.174000
     46 H271        -2.2470    39.9510    18.7700 hc         1 EPB       0.060367
     47 H272        -1.5750    38.3110    18.8460 hc         1 EPB       0.060367
     48 H273        -1.1010    39.5170    20.0460 hc         1 EPB       0.060367
     49 H24          1.8270    41.5460    15.9010 h4         1 EPB       0.153000
     50 H151         5.8520    39.2620    12.9840 hc         1 EPB       0.084700
     51 H152         4.7930    38.0580    12.2370 hc         1 EPB       0.084700
     52 H14          3.9070    40.3680    14.0260 h1         1 EPB       0.036700
     53 H2           1.9160    39.4540    13.8790 ho         1 EPB       0.448000
     54 H291         3.0870    40.2830     9.8010 hc         1 EPB       0.045867
     55 H292         4.3690    39.2300    10.3820 hc         1 EPB       0.045867
     56 H293         2.6850    38.8980    10.8230 hc         1 EPB       0.045867
     57 H301         2.1410    42.1270    11.2870 hc         1 EPB       0.045867
     58 H302         1.3690    40.6990    11.9720 hc         1 EPB       0.045867
     59 H303         2.1630    41.8660    13.0360 hc         1 EPB       0.045867
     60 H11          4.1000    42.5050    13.5620 hc         1 EPB       0.053700
     61 H281         5.0240    44.7560    13.1100 hc         1 EPB       0.046033
     62 H282         5.6730    44.1920    11.5640 hc         1 EPB       0.046033
     63 H283         3.9250    44.2530    11.8230 hc         1 EPB       0.046033
     64 H1           6.1880    41.1830    13.7800 h1         1 EPB       0.029700
     65 H10          8.0820    42.0720    13.0610 ho         1 EPB       0.442000
     66 H9           6.4720    44.0280    14.7660 hc         1 EPB       0.064700
     67 H911         5.3240    43.1990    16.8430 hc         1 EPB       0.036033
     68 H912         4.2400    43.2480    15.4580 hc         1 EPB       0.036033
     69 H913         4.9010    41.7080    16.0050 hc         1 EPB       0.036033
     70 H81          8.5170    42.8890    15.2000 hc         1 EPB       0.045700
     71 H82          7.6090    42.8630    16.6930 hc         1 EPB       0.045700
     72 H71          6.7650    40.4850    15.7690 hc         1 EPB       0.045200
     73 H72          8.2060    40.5690    14.8020 hc         1 EPB       0.045200
     74 H61          8.0470    40.6970    17.8450 hc         1 EPB       0.054700
     75 H62          9.5430    40.8990    16.9490 hc         1 EPB       0.054700
     76 H4           7.6960    37.0100    16.7960 h1         1 EPB       0.082700
@<TRIPOS>BOND
     1     1     6 2   
     2     2     4 1   
     3     2    36 1   
     4     2    37 1   
     5     2    38 1   
     6     3     4 1   
     7     3     5 1   
     8     4     5 1   
     9     4    35 1   
    10     5     9 1   
    11     5    76 1   
    12     6     7 1   
    13     6    19 1   
    14     7     8 1   
    15     8     9 1   
    16     8    10 1   
    17     8    39 1   
    18     9    40 1   
    19     9    41 1   
    20    10    11 1   
    21    10    12 2   
    22    11    42 1   
    23    11    43 1   
    24    11    44 1   
    25    12    13 1   
    26    12    45 1   
    27    13    14 1   
    28    13    17 2   
    29    14    15 2   
    30    15    16 1   
    31    15    18 1   
    32    16    46 1   
    33    16    47 1   
    34    16    48 1   
    35    17    18 1   
    36    17    49 1   
    37    19    20 1   
    38    19    50 1   
    39    19    51 1   
    40    20    21 1   
    41    20    22 1   
    42    20    52 1   
    43    21    53 1   
    44    22    23 1   
    45    22    24 1   
    46    22    25 1   
    47    23    54 1   
    48    23    55 1   
    49    23    56 1   
    50    24    57 1   
    51    24    58 1   
    52    24    59 1   
    53    25    26 2   
    54    25    27 1   
    55    27    28 1   
    56    27    29 1   
    57    27    60 1   
    58    28    61 1   
    59    28    62 1   
    60    28    63 1   
    61    29    30 1   
    62    29    31 1   
    63    29    64 1   
    64    30    65 1   
    65    31    32 1   
    66    31    33 1   
    67    31    66 1   
    68    32    67 1   
    69    32    68 1   
    70    32    69 1   
    71    33    34 1   
    72    33    70 1   
    73    33    71 1   
    74    34    35 1   
    75    34    72 1   
    76    34    73 1   
    77    35    74 1   
    78    35    75 1   
@<TRIPOS>SUBSTRUCTURE
     1 EPB         1 TEMP              0 ****  ****    0 ROOT
