@<TRIPOS>MOLECULE
EPD
   75    76     1     0     0
SMALL
No Charge or Current Charge


@<TRIPOS>ATOM
      1 C51         10.1100    38.8310    16.9630 c3         1 EPD      -0.057900
      2 C5           8.7030    39.3150    17.2810 c2         1 EPD      -0.101400
      3 C4           7.6510    38.4690    17.2660 c2         1 EPD      -0.228200
      4 C3           6.1990    38.7570    17.6300 c3         1 EPD      -0.041200
      5 C2           5.1510    38.0000    16.7750 c3         1 EPD       0.207500
      6 C20          3.7310    38.2610    17.2950 c2         1 EPD      -0.085400
      7 C21          3.1610    37.0760    18.0660 c3         1 EPD      -0.070900
      8 C22          3.0860    39.4380    17.0610 ce         1 EPD      -0.262800
      9 C23          1.7410    39.8840    17.4250 cc         1 EPD       0.348800
     10 C24          1.2330    41.1260    17.1350 cd         1 EPD      -0.261000
     11 S1          -0.4130    41.2990    17.7160 ss         1 EPD      -0.057400
     12 C25         -0.2690    39.6510    18.3070 cd         1 EPD       0.452700
     13 C27         -1.3920    38.9570    19.0220 c3         1 EPD      -0.130400
     14 N26          0.8860    39.0440    18.0900 nc         1 EPD      -0.644000
     15 C6           8.6540    40.8020    17.6570 c3         1 EPD      -0.042200
     16 C7           9.1420    41.7750    16.5440 c3         1 EPD      -0.065400
     17 C8           8.5310    41.5430    15.1330 c3         1 EPD      -0.073400
     18 C9           7.2370    42.3300    14.7370 c3         1 EPD      -0.049700
     19 C91          6.1600    42.3450    15.8530 c3         1 EPD      -0.094100
     20 C10          6.6910    41.7430    13.3910 c3         1 EPD       0.179300
     21 O10          7.6520    41.9490    12.3510 oh         1 EPD      -0.671000
     22 C11          5.3060    42.2450    12.8910 c3         1 EPD      -0.199700
     23 C28          5.2810    43.7470    12.4960 c3         1 EPD      -0.074100
     24 C12          4.8080    41.3450    11.7300 c          1 EPD       0.570100
     25 O12          5.4910    41.2460    10.7140 o          1 EPD      -0.530100
     26 C13          3.4320    40.6010    11.8770 c3         1 EPD      -0.167000
     27 C30          2.3200    41.6870    12.0390 c3         1 EPD      -0.082600
     28 C29          3.1250    39.8040    10.5640 c3         1 EPD      -0.082600
     29 C14          3.4410    39.6400    13.1280 c3         1 EPD       0.189300
     30 O14          2.1540    39.0310    13.2700 oh         1 EPD      -0.660000
     31 C15          4.5010    38.5080    13.1110 c3         1 EPD      -0.137400
     32 C16          4.5320    37.7700    14.4500 c          1 EPD       0.606100
     33 O16          3.9340    36.7210    14.6550 o          1 EPD      -0.485000
     34 O1           5.2290    38.4690    15.4090 os         1 EPD      -0.467100
     35 H511        10.5030    39.3010    16.0540 hc         1 EPD       0.042033
     36 H512        10.8020    39.0560    17.7840 hc         1 EPD       0.042033
     37 H513        10.1400    37.7470    16.8020 hc         1 EPD       0.042033
     38 H4           7.8190    37.4260    16.9940 ha         1 EPD       0.174000
     39 H31          6.0440    38.4590    18.6740 hc         1 EPD       0.058200
     40 H32          5.9680    39.8230    17.5970 hc         1 EPD       0.058200
     41 H2           5.3920    36.9280    16.8170 h1         1 EPD       0.080700
     42 H211         3.9080    36.3010    18.2740 hc         1 EPD       0.059700
     43 H212         2.7660    37.3910    19.0390 hc         1 EPD       0.059700
     44 H213         2.3450    36.6020    17.5070 hc         1 EPD       0.059700
     45 H22          3.6170    40.2060    16.5020 ha         1 EPD       0.172000
     46 H24          1.7250    41.9400    16.6190 h4         1 EPD       0.160000
     47 H271        -1.7020    38.0580    18.4780 hc         1 EPD       0.060033
     48 H272        -1.0850    38.6570    20.0300 hc         1 EPD       0.060033
     49 H273        -2.2650    39.6130    19.1160 hc         1 EPD       0.060033
     50 H61          7.6530    41.1000    17.9740 hc         1 EPD       0.041700
     51 H62          9.2800    40.9660    18.5420 hc         1 EPD       0.041700
     52 H71          8.9760    42.8120    16.8570 hc         1 EPD       0.038700
     53 H72         10.2300    41.6670    16.4600 hc         1 EPD       0.038700
     54 H81          9.3090    41.8050    14.4060 hc         1 EPD       0.051200
     55 H82          8.3580    40.4710    14.9870 hc         1 EPD       0.051200
     56 H9           7.5270    43.3740    14.5640 hc         1 EPD       0.056700
     57 H911         5.3410    43.0270    15.6000 hc         1 EPD       0.036700
     58 H912         5.7420    41.3450    15.9970 hc         1 EPD       0.036700
     59 H913         6.5670    42.7070    16.8020 hc         1 EPD       0.036700
     60 H10          6.5850    40.6660    13.5620 h1         1 EPD       0.028700
     61 H3           7.1890    41.7300    11.5080 ho         1 EPD       0.465000
     62 H11          4.5880    42.1390    13.7080 hc         1 EPD       0.068700
     63 H281         4.2680    44.0530    12.2070 hc         1 EPD       0.045033
     64 H282         5.5920    44.3780    13.3360 hc         1 EPD       0.045033
     65 H283         5.9480    43.9510    11.6490 hc         1 EPD       0.045033
     66 H301         1.3160    41.2510    11.9710 hc         1 EPD       0.046533
     67 H302         2.3930    42.2060    13.0030 hc         1 EPD       0.046533
     68 H303         2.3990    42.4420    11.2460 hc         1 EPD       0.046533
     69 H291         2.1650    39.2780    10.6260 hc         1 EPD       0.046533
     70 H292         3.0720    40.4800     9.7010 hc         1 EPD       0.046533
     71 H293         3.9030    39.0610    10.3530 hc         1 EPD       0.046533
     72 H14          3.6370    40.2460    14.0220 h1         1 EPD       0.052700
     73 H1           1.4940    39.7550    13.3120 ho         1 EPD       0.450000
     74 H151         4.2780    37.7930    12.3120 hc         1 EPD       0.085700
     75 H152         5.4780    38.9660    12.9550 hc         1 EPD       0.085700
@<TRIPOS>BOND
     1     1     2 1   
     2     1    35 1   
     3     1    36 1   
     4     1    37 1   
     5     2     3 2   
     6     2    15 1   
     7     3     4 1   
     8     3    38 1   
     9     4     5 1   
    10     4    39 1   
    11     4    40 1   
    12     5     6 1   
    13     5    34 1   
    14     5    41 1   
    15     6     7 1   
    16     6     8 2   
    17     7    42 1   
    18     7    43 1   
    19     7    44 1   
    20     8     9 1   
    21     8    45 1   
    22     9    10 2   
    23     9    14 1   
    24    10    11 1   
    25    10    46 1   
    26    11    12 1   
    27    12    13 1   
    28    12    14 2   
    29    13    47 1   
    30    13    48 1   
    31    13    49 1   
    32    15    16 1   
    33    15    50 1   
    34    15    51 1   
    35    16    17 1   
    36    16    52 1   
    37    16    53 1   
    38    17    18 1   
    39    17    54 1   
    40    17    55 1   
    41    18    19 1   
    42    18    20 1   
    43    18    56 1   
    44    19    57 1   
    45    19    58 1   
    46    19    59 1   
    47    20    21 1   
    48    20    22 1   
    49    20    60 1   
    50    21    61 1   
    51    22    23 1   
    52    22    24 1   
    53    22    62 1   
    54    23    63 1   
    55    23    64 1   
    56    23    65 1   
    57    24    25 2   
    58    24    26 1   
    59    26    27 1   
    60    26    28 1   
    61    26    29 1   
    62    27    66 1   
    63    27    67 1   
    64    27    68 1   
    65    28    69 1   
    66    28    70 1   
    67    28    71 1   
    68    29    30 1   
    69    29    31 1   
    70    29    72 1   
    71    30    73 1   
    72    31    32 1   
    73    31    74 1   
    74    31    75 1   
    75    32    33 2   
    76    32    34 1   
@<TRIPOS>SUBSTRUCTURE
     1 EPD         1 TEMP              0 ****  ****    0 ROOT
