@<TRIPOS>MOLECULE
EPD
   75    76     1     0     0
SMALL
abcg2


@<TRIPOS>ATOM
      1 C51          9.8640    38.9610    16.7380 c3         1 EPD      -0.057900
      2 C5           8.5100    39.4820    17.1420 c2         1 EPD      -0.101400
      3 C4           7.4630    38.6540    17.2130 c2         1 EPD      -0.228200
      4 C3           6.0670    38.9800    17.6580 c3         1 EPD      -0.041200
      5 C2           5.0010    38.2190    16.8850 c3         1 EPD       0.207500
      6 C20          3.5650    38.3720    17.3450 c2         1 EPD      -0.085400
      7 C21          2.6420    37.3140    16.8140 c3         1 EPD      -0.070900
      8 C22          3.2110    39.4100    18.1170 ce         1 EPD      -0.262800
      9 C23          1.9090    39.8150    18.6300 cc         1 EPD       0.348800
     10 C24          1.7710    40.8800    19.4840 cd         1 EPD      -0.261000
     11 S1           0.1220    41.1260    19.8870 ss         1 EPD      -0.057400
     12 C25         -0.3100    39.7680    18.8770 cd         1 EPD       0.452700
     13 C27         -1.7270    39.3260    18.7230 c3         1 EPD      -0.130400
     14 N26          0.7080    39.2050    18.3010 nc         1 EPD      -0.644000
     15 C6           8.4520    40.9520    17.4830 c3         1 EPD      -0.042200
     16 C7           8.9990    41.8840    16.3810 c3         1 EPD      -0.065400
     17 C8           8.4470    41.6220    14.9730 c3         1 EPD      -0.073400
     18 C9           7.1650    42.3680    14.5470 c3         1 EPD      -0.049700
     19 C91          6.0720    42.3620    15.6150 c3         1 EPD      -0.094100
     20 C10          6.6830    41.7210    13.2410 c3         1 EPD       0.179300
     21 O10          7.6860    41.9250    12.2430 oh         1 EPD      -0.671000
     22 C11          5.2930    42.1720    12.7320 c3         1 EPD      -0.199700
     23 C28          5.2700    43.6140    12.2170 c3         1 EPD      -0.074100
     24 C12          4.8680    41.1940    11.6450 c          1 EPD       0.570100
     25 O12          5.5360    41.1000    10.6270 o          1 EPD      -0.530100
     26 C13          3.6110    40.3450    11.8470 c3         1 EPD      -0.167000
     27 C30          2.4260    41.3270    11.9870 c3         1 EPD      -0.082600
     28 C29          3.3770    39.4330    10.6430 c3         1 EPD      -0.082600
     29 C14          3.7330    39.5250    13.1700 c3         1 EPD       0.189300
     30 O14          2.5210    38.8250    13.4600 oh         1 EPD      -0.660000
     31 C15          4.8270    38.4630    13.1430 c3         1 EPD      -0.137400
     32 C16          5.0420    37.8040    14.4890 c          1 EPD       0.606100
     33 O16          5.2130    36.6130    14.6310 o          1 EPD      -0.485000
     34 O1           5.0300    38.6900    15.4890 os         1 EPD      -0.467100
     35 H511        10.2130    39.4310    15.8140 hc         1 EPD       0.042033
     36 H512        10.6100    39.1910    17.5050 hc         1 EPD       0.042033
     37 H513         9.8450    37.8820    16.5840 hc         1 EPD       0.042033
     38 H4           7.6330    37.6070    16.9720 ha         1 EPD       0.174000
     39 H31          5.9450    38.6910    18.7090 hc         1 EPD       0.058200
     40 H32          5.8740    40.0490    17.6070 hc         1 EPD       0.058200
     41 H2           5.2580    37.1600    16.8640 h1         1 EPD       0.080700
     42 H211         3.0640    36.3230    17.0070 hc         1 EPD       0.059700
     43 H212         1.6540    37.3800    17.2530 hc         1 EPD       0.059700
     44 H213         2.5390    37.4070    15.7280 hc         1 EPD       0.059700
     45 H22          3.9920    40.0910    18.4300 ha         1 EPD       0.172000
     46 H24          2.5490    41.5150    19.8770 h4         1 EPD       0.160000
     47 H271        -1.7750    38.5360    17.9760 hc         1 EPD       0.060033
     48 H272        -2.1200    38.9430    19.6670 hc         1 EPD       0.060033
     49 H273        -2.3660    40.1530    18.4090 hc         1 EPD       0.060033
     50 H61          7.4360    41.2370    17.7430 hc         1 EPD       0.041700
     51 H62          9.0540    41.1150    18.3850 hc         1 EPD       0.041700
     52 H71          8.8150    42.9200    16.6790 hc         1 EPD       0.038700
     53 H72         10.0850    41.7720    16.3470 hc         1 EPD       0.038700
     54 H81          9.2210    41.8610    14.2430 hc         1 EPD       0.051200
     55 H82          8.2590    40.5490    14.8700 hc         1 EPD       0.051200
     56 H9           7.4280    43.4100    14.3330 hc         1 EPD       0.056700
     57 H911         5.2280    42.9890    15.3260 hc         1 EPD       0.036700
     58 H912         5.6970    41.3530    15.7940 hc         1 EPD       0.036700
     59 H913         6.4520    42.7540    16.5570 hc         1 EPD       0.036700
     60 H10          6.6130    40.6480    13.4540 h1         1 EPD       0.028700
     61 H3           7.3060    41.6290    11.4000 ho         1 EPD       0.465000
     62 H11          4.5980    42.0880    13.5620 hc         1 EPD       0.068700
     63 H281         4.2660    43.8920    11.8950 hc         1 EPD       0.045033
     64 H282         5.5740    44.2990    13.0090 hc         1 EPD       0.045033
     65 H283         5.9490    43.7390    11.3740 hc         1 EPD       0.045033
     66 H301         1.4940    40.7650    12.0210 hc         1 EPD       0.046533
     67 H302         2.4980    41.9290    12.8940 hc         1 EPD       0.046533
     68 H303         2.3830    41.9980    11.1280 hc         1 EPD       0.046533
     69 H291         2.5140    38.7960    10.8320 hc         1 EPD       0.046533
     70 H292         3.1780    40.0280     9.7510 hc         1 EPD       0.046533
     71 H293         4.2400    38.8020    10.4350 hc         1 EPD       0.046533
     72 H14          3.9390    40.2170    13.9850 h1         1 EPD       0.052700
     73 H1           1.9170    39.4170    13.9240 ho         1 EPD       0.450000
     74 H151         4.5790    37.6750    12.4350 hc         1 EPD       0.085700
     75 H152         5.7800    38.8940    12.8270 hc         1 EPD       0.085700
@<TRIPOS>BOND
     1     1     2 1   
     2     1    35 1   
     3     1    36 1   
     4     1    37 1   
     5     2     3 2   
     6     2    15 1   
     7     3     4 1   
     8     3    38 1   
     9     4     5 1   
    10     4    39 1   
    11     4    40 1   
    12     5     6 1   
    13     5    34 1   
    14     5    41 1   
    15     6     7 1   
    16     6     8 2   
    17     7    42 1   
    18     7    43 1   
    19     7    44 1   
    20     8     9 1   
    21     8    45 1   
    22     9    10 2   
    23     9    14 1   
    24    10    11 1   
    25    10    46 1   
    26    11    12 1   
    27    12    13 1   
    28    12    14 2   
    29    13    47 1   
    30    13    48 1   
    31    13    49 1   
    32    15    16 1   
    33    15    50 1   
    34    15    51 1   
    35    16    17 1   
    36    16    52 1   
    37    16    53 1   
    38    17    18 1   
    39    17    54 1   
    40    17    55 1   
    41    18    19 1   
    42    18    20 1   
    43    18    56 1   
    44    19    57 1   
    45    19    58 1   
    46    19    59 1   
    47    20    21 1   
    48    20    22 1   
    49    20    60 1   
    50    21    61 1   
    51    22    23 1   
    52    22    24 1   
    53    22    62 1   
    54    23    63 1   
    55    23    64 1   
    56    23    65 1   
    57    24    25 2   
    58    24    26 1   
    59    26    27 1   
    60    26    28 1   
    61    26    29 1   
    62    27    66 1   
    63    27    67 1   
    64    27    68 1   
    65    28    69 1   
    66    28    70 1   
    67    28    71 1   
    68    29    30 1   
    69    29    31 1   
    70    29    72 1   
    71    30    73 1   
    72    31    32 1   
    73    31    74 1   
    74    31    75 1   
    75    32    33 2   
    76    32    34 1   
@<TRIPOS>SUBSTRUCTURE
     1 EPD         1 TEMP              0 ****  ****    0 ROOT
