@<TRIPOS>MOLECULE
EPE
   32    32     1     0     0
SMALL
No Charge or Current Charge


@<TRIPOS>ATOM
      1 N1          61.5240    47.2940    51.6160 n3         1 EPE      -0.722600
      2 C2          62.9680    47.1070    51.9710 c6         1 EPE       0.168800
      3 C3          63.9280    47.4340    50.7800 c6         1 EPE       0.162800
      4 N4          63.6040    46.6500    49.5460 n3         1 EPE      -0.700600
      5 C5          62.1640    46.8410    49.1950 c6         1 EPE       0.162800
      6 C6          61.2080    46.5060    50.3850 c6         1 EPE       0.168800
      7 C7          64.5090    46.9390    48.3960 c3         1 EPE       0.169800
      8 C8          66.0230    46.6210    48.5970 c3         1 EPE       0.166600
      9 O8          66.2510    45.2190    48.8300 oh         1 EPE      -0.640000
     10 C9          60.5890    46.9930    52.7250 c3         1 EPE       0.208800
     11 C10         60.7550    47.9360    53.9240 c3         1 EPE      -0.357400
     12 S           59.5260    47.6110    55.1950 s6         1 EPE       1.321600
     13 O1S         59.8550    48.5840    56.2470 o          1 EPE      -0.698533
     14 O2S         59.7640    46.2090    55.5680 o          1 EPE      -0.698533
     15 O3S         58.2420    47.8550    54.5220 o          1 EPE      -0.698533
     16 H21         63.2490    47.7540    52.8140 h1         1 EPE       0.037200
     17 H22         63.1470    46.0690    52.2890 h1         1 EPE       0.037200
     18 H31         63.8670    48.5110    50.5660 h1         1 EPE       0.026950
     19 H32         64.9570    47.2280    51.1070 h1         1 EPE       0.026950
     20 H51         61.9870    47.8820    48.8860 h1         1 EPE       0.026950
     21 H52         61.8960    46.2030    48.3410 h1         1 EPE       0.026950
     22 H61         61.2800    45.4290    50.5980 h1         1 EPE       0.037200
     23 H62         60.1730    46.7010    50.0650 h1         1 EPE       0.037200
     24 H71         64.1700    46.3710    47.5180 h1         1 EPE       0.030200
     25 H72         64.4250    48.0010    48.1290 h1         1 EPE       0.030200
     26 H81         66.5640    46.9360    47.6960 h1         1 EPE       0.009700
     27 H82         66.4170    47.2140    49.4330 h1         1 EPE       0.009700
     28 HO8         67.2130    45.1120    48.9960 ho         1 EPE       0.427000
     29 H91         59.5570    47.0810    52.3570 h1         1 EPE       0.042700
     30 H92         60.7260    45.9540    53.0580 h1         1 EPE       0.042700
     31 H101        61.7300    47.8050    54.4000 h1         1 EPE       0.069200
     32 H102        60.6250    48.9790    53.6170 h1         1 EPE       0.069200
@<TRIPOS>BOND
     1     1     2 1   
     2     1     6 1   
     3     1    10 1   
     4     2     3 1   
     5     2    16 1   
     6     2    17 1   
     7     3     4 1   
     8     3    18 1   
     9     3    19 1   
    10     4     5 1   
    11     4     7 1   
    12     5     6 1   
    13     5    20 1   
    14     5    21 1   
    15     6    22 1   
    16     6    23 1   
    17     7     8 1   
    18     7    24 1   
    19     7    25 1   
    20     8     9 1   
    21     8    26 1   
    22     8    27 1   
    23     9    28 1   
    24    10    11 1   
    25    10    29 1   
    26    10    30 1   
    27    11    12 1   
    28    11    31 1   
    29    11    32 1   
    30    12    13 1   
    31    12    14 1   
    32    12    15 1   
@<TRIPOS>SUBSTRUCTURE
     1 EPE         1 TEMP              0 ****  ****    0 ROOT
