@<TRIPOS>MOLECULE
EPE
   32    32     1     0     0
SMALL
abcg2


@<TRIPOS>ATOM
      1 N1          61.6420    47.1720    51.6450 n3         1 EPE      -0.722600
      2 C2          63.0380    46.9840    51.9870 c6         1 EPE       0.168800
      3 C3          63.9340    47.4030    50.8350 c6         1 EPE       0.162800
      4 N4          63.6170    46.6680    49.6250 n3         1 EPE      -0.700600
      5 C5          62.2120    46.8280    49.3030 c6         1 EPE       0.162800
      6 C6          61.3310    46.3980    50.4600 c6         1 EPE       0.168800
      7 C7          64.4430    47.0680    48.5010 c3         1 EPE       0.169800
      8 C8          65.9030    46.6780    48.6070 c3         1 EPE       0.166600
      9 O8          66.0150    45.2740    48.6650 oh         1 EPE      -0.640000
     10 C9          60.7390    46.8680    52.7390 c3         1 EPE       0.208800
     11 C10         60.8160    47.9050    53.8500 c3         1 EPE      -0.357400
     12 S           59.4370    47.7850    55.0050 s6         1 EPE       1.321600
     13 O1S         59.6840    48.8320    56.0160 o          1 EPE      -0.698533
     14 O2S         59.4990    46.4150    55.5540 o          1 EPE      -0.698533
     15 O3S         58.2200    48.0340    54.2050 o          1 EPE      -0.698533
     16 H21         63.2950    47.5930    52.8550 h1         1 EPE       0.037200
     17 H22         63.2480    45.9340    52.2540 h1         1 EPE       0.037200
     18 H31         63.8340    48.4920    50.6810 h1         1 EPE       0.026950
     19 H32         64.9700    47.2170    51.1250 h1         1 EPE       0.026950
     20 H51         61.9710    47.8730    49.0410 h1         1 EPE       0.026950
     21 H52         61.9750    46.2170    48.4290 h1         1 EPE       0.026950
     22 H61         61.4560    45.3150    50.6310 h1         1 EPE       0.037200
     23 H62         60.2860    46.5620    50.1860 h1         1 EPE       0.037200
     24 H71         64.0300    46.6090    47.5970 h1         1 EPE       0.030200
     25 H72         64.4040    48.1590    48.3370 h1         1 EPE       0.030200
     26 H81         66.4100    47.0900    47.7250 h1         1 EPE       0.009700
     27 H82         66.3680    47.1560    49.4780 h1         1 EPE       0.009700
     28 HO8         66.9490    45.0510    48.6840 ho         1 EPE       0.427000
     29 H91         59.7250    46.8690    52.3330 h1         1 EPE       0.042700
     30 H92         60.9170    45.8630    53.1510 h1         1 EPE       0.042700
     31 H101        61.7290    47.8090    54.4410 h1         1 EPE       0.069200
     32 H102        60.7960    48.9100    53.4230 h1         1 EPE       0.069200
@<TRIPOS>BOND
     1     1     2 1   
     2     1     6 1   
     3     1    10 1   
     4     2     3 1   
     5     2    16 1   
     6     2    17 1   
     7     3     4 1   
     8     3    18 1   
     9     3    19 1   
    10     4     5 1   
    11     4     7 1   
    12     5     6 1   
    13     5    20 1   
    14     5    21 1   
    15     6    22 1   
    16     6    23 1   
    17     7     8 1   
    18     7    24 1   
    19     7    25 1   
    20     8     9 1   
    21     8    26 1   
    22     8    27 1   
    23     9    28 1   
    24    10    11 1   
    25    10    29 1   
    26    10    30 1   
    27    11    12 1   
    28    11    31 1   
    29    11    32 1   
    30    12    13 1   
    31    12    14 1   
    32    12    15 1   
@<TRIPOS>SUBSTRUCTURE
     1 EPE         1 TEMP              0 ****  ****    0 ROOT
