@<TRIPOS>MOLECULE
EPG
   32    33     1     0     0
SMALL
No Charge or Current Charge


@<TRIPOS>ATOM
      1 C1          -0.5670     1.0940    -0.0480 c6         1 EPG       0.353300
      2 O1          -0.7510     0.1090     0.9870 os         1 EPG      -0.458000
      3 C2          -1.4060     0.7230    -1.3190 c6         1 EPG       0.124300
      4 O2          -2.7990     0.4930    -0.9950 oh         1 EPG      -0.702000
      5 C3          -0.8060    -0.5430    -1.9990 c6         1 EPG       0.138300
      6 O3          -1.5200    -0.8490    -3.2130 oh         1 EPG      -0.672000
      7 C4           0.7080    -0.3420    -2.2910 c6         1 EPG       0.148300
      8 O4           1.2410    -1.5300    -2.9040 oh         1 EPG      -0.718000
      9 C5           1.4380     0.0200    -0.9610 c6         1 EPG       0.169300
     10 O5           0.8360     1.2090    -0.3760 os         1 EPG      -0.467000
     11 C6           2.9640     0.2940    -1.1720 c3         1 EPG       0.169600
     12 O6           3.6500     0.6810     0.0380 oh         1 EPG      -0.715000
     13 C7          -0.1610     0.4140     2.2640 c3         1 EPG       0.166600
     14 C8          -0.4940    -0.7310     3.2160 cx         1 EPG       0.083300
     15 C9          -0.5340    -0.4960     4.6990 cx         1 EPG       0.075600
     16 O8          -1.7520    -0.6620     3.9330 op         1 EPG      -0.427000
     17 H1          -0.9240     2.0670     0.3240 h2         1 EPG       0.066700
     18 H2          -1.3260     1.5630    -2.0250 h1         1 EPG       0.053700
     19 HO2         -2.8050     0.0670    -0.1030 ho         1 EPG       0.511000
     20 H3          -0.9040    -1.3820    -1.2920 h1         1 EPG       0.072700
     21 HO3         -2.4620    -0.6300    -3.0190 ho         1 EPG       0.466000
     22 H4           0.8160     0.5090    -2.9810 h1         1 EPG       0.047700
     23 HO4          0.5310    -1.8310    -3.5230 ho         1 EPG       0.525000
     24 H5           1.3400    -0.8160    -0.2540 h1         1 EPG       0.072700
     25 H61          3.0660     1.0820    -1.9310 h1         1 EPG       0.036200
     26 H62          3.4220    -0.6150    -1.5850 h1         1 EPG       0.036200
     27 HO6          4.5780     0.8980    -0.2150 ho         1 EPG       0.503000
     28 H71          0.9290     0.5100     2.1830 h1         1 EPG       0.046200
     29 H72         -0.5630     1.3550     2.6620 h1         1 EPG       0.046200
     30 H8          -0.2130    -1.7210     2.8580 h1         1 EPG       0.096700
     31 H91         -0.2910    -1.3190     5.3710 h1         1 EPG       0.075700
     32 H92         -0.3600     0.5080     5.0860 h1         1 EPG       0.075700
@<TRIPOS>BOND
     1     1     2 1   
     2     1     3 1   
     3     1    10 1   
     4     1    17 1   
     5     2    13 1   
     6     3     4 1   
     7     3     5 1   
     8     3    18 1   
     9     4    19 1   
    10     5     6 1   
    11     5     7 1   
    12     5    20 1   
    13     6    21 1   
    14     7     8 1   
    15     7     9 1   
    16     7    22 1   
    17     8    23 1   
    18     9    10 1   
    19     9    11 1   
    20     9    24 1   
    21    11    12 1   
    22    11    25 1   
    23    11    26 1   
    24    12    27 1   
    25    13    14 1   
    26    13    28 1   
    27    13    29 1   
    28    14    15 1   
    29    14    16 1   
    30    14    30 1   
    31    15    16 1   
    32    15    31 1   
    33    15    32 1   
@<TRIPOS>SUBSTRUCTURE
     1 EPG         1 TEMP              0 ****  ****    0 ROOT
