@<TRIPOS>MOLECULE
EPG
   32    33     1     0     0
SMALL
abcg2


@<TRIPOS>ATOM
      1 C1          -0.5140     1.0090     0.0450 c6         1 EPG       0.353300
      2 O1          -0.6800     0.0060     0.9920 os         1 EPG      -0.458000
      3 C2          -1.3740     0.6750    -1.1770 c6         1 EPG       0.124300
      4 O2          -2.7110     0.4120    -0.8390 oh         1 EPG      -0.702000
      5 C3          -0.8140    -0.5470    -1.8920 c6         1 EPG       0.138300
      6 O3          -1.4840    -0.7930    -3.1070 oh         1 EPG      -0.672000
      7 C4           0.6580    -0.3260    -2.2230 c6         1 EPG       0.148300
      8 O4           1.2440    -1.4860    -2.7600 oh         1 EPG      -0.718000
      9 C5           1.4240     0.0470    -0.9540 c6         1 EPG       0.169300
     10 O5           0.8210     1.1750    -0.3400 os         1 EPG      -0.467000
     11 C6           2.8630     0.4140    -1.2470 c3         1 EPG       0.169600
     12 O6           3.5320     0.6330    -0.0270 oh         1 EPG      -0.715000
     13 C7          -0.0680     0.2750     2.2380 c3         1 EPG       0.166600
     14 C8          -0.4420    -0.8200     3.1850 cx         1 EPG       0.083300
     15 C9          -0.5790    -0.5540     4.6120 cx         1 EPG       0.075600
     16 O8          -1.7210    -0.7390     3.7910 op         1 EPG      -0.427000
     17 H1          -0.8090     1.9830     0.4620 h2         1 EPG       0.066700
     18 H2          -1.2990     1.5360    -1.8570 h1         1 EPG       0.053700
     19 HO2         -3.1510     1.2450    -0.6410 ho         1 EPG       0.511000
     20 H3          -0.8870    -1.4180    -1.2250 h1         1 EPG       0.072700
     21 HO3         -2.3720    -1.1050    -2.9070 ho         1 EPG       0.466000
     22 H4           0.7310     0.5160    -2.9310 h1         1 EPG       0.047700
     23 HO4          0.7520    -1.7320    -3.5500 ho         1 EPG       0.525000
     24 H5           1.4140    -0.8180    -0.2750 h1         1 EPG       0.072700
     25 H61          2.8810     1.3060    -1.8890 h1         1 EPG       0.036200
     26 H62          3.3200    -0.4020    -1.8160 h1         1 EPG       0.036200
     27 HO6          4.4580     0.7980    -0.2230 ho         1 EPG       0.503000
     28 H71          1.0230     0.3060     2.1500 h1         1 EPG       0.046200
     29 H72         -0.3950     1.2480     2.6280 h1         1 EPG       0.046200
     30 H8          -0.1490    -1.8220     2.8750 h1         1 EPG       0.096700
     31 H91         -0.3670    -1.3450     5.3240 h1         1 EPG       0.075700
     32 H92         -0.4250     0.4530     4.9910 h1         1 EPG       0.075700
@<TRIPOS>BOND
     1     1     2 1   
     2     1     3 1   
     3     1    10 1   
     4     1    17 1   
     5     2    13 1   
     6     3     4 1   
     7     3     5 1   
     8     3    18 1   
     9     4    19 1   
    10     5     6 1   
    11     5     7 1   
    12     5    20 1   
    13     6    21 1   
    14     7     8 1   
    15     7     9 1   
    16     7    22 1   
    17     8    23 1   
    18     9    10 1   
    19     9    11 1   
    20     9    24 1   
    21    11    12 1   
    22    11    25 1   
    23    11    26 1   
    24    12    27 1   
    25    13    14 1   
    26    13    28 1   
    27    13    29 1   
    28    14    15 1   
    29    14    16 1   
    30    14    30 1   
    31    15    16 1   
    32    15    31 1   
    33    15    32 1   
@<TRIPOS>SUBSTRUCTURE
     1 EPG         1 TEMP              0 ****  ****    0 ROOT
