@<TRIPOS>MOLECULE
EPH
  116   115     1     0     0
SMALL
No Charge or Current Charge


@<TRIPOS>ATOM
      1 C1           5.3200     0.4540    -2.1460 c3         1 EPH       0.148600
      2 C2           5.2380    -0.8370    -2.9970 c3         1 EPH       0.150300
      3 C4           4.1020     1.5150    -0.3570 c          1 EPH       0.595100
      4 O2           4.2510     0.4260    -1.1740 os         1 EPH      -0.458100
      5 O4           4.8220     2.5040    -0.3860 o          1 EPH      -0.489000
      6 C18          2.9460     1.3370     0.6300 c3         1 EPH      -0.141400
      7 C19          3.4480     0.7880     1.9860 c3         1 EPH      -0.067400
      8 C20          2.3300     0.6870     3.0480 c3         1 EPH      -0.076400
      9 C21          2.8370     0.1510     4.4040 c3         1 EPH      -0.075400
     10 C22          1.7390     0.1060     5.4910 c3         1 EPH      -0.072400
     11 C23          2.2560    -0.4320     6.8420 c3         1 EPH      -0.042200
     12 C24          1.1940    -0.3980     7.9220 c2         1 EPH      -0.210200
     13 C25          0.6520    -1.4740     8.5110 c2         1 EPH      -0.228200
     14 C26         -0.3810    -1.4330     9.6180 c3         1 EPH      -0.036200
     15 C27         -1.7580    -1.9550     9.1630 c3         1 EPH      -0.040200
     16 C28         -2.7810    -1.8950    10.2790 c2         1 EPH      -0.215200
     17 C29         -3.8540    -1.0890    10.3020 c2         1 EPH      -0.223200
     18 C30         -4.8500    -0.9940    11.4390 c3         1 EPH      -0.037200
     19 C31         -4.7990     0.3790    12.1390 c3         1 EPH      -0.039200
     20 C32         -5.7360     0.4580    13.3280 c2         1 EPH      -0.220200
     21 C33         -5.3520     0.6260    14.6030 c2         1 EPH      -0.220200
     22 C34         -6.2840     0.7030    15.7940 c3         1 EPH      -0.055900
     23 C37          6.5570    -1.2390    -3.7420 c3         1 EPH       0.215600
     24 O5           6.8060    -0.4870    -4.9510 os         1 EPH      -0.588400
     25 C3           3.6710    -1.8120    -4.5830 c          1 EPH       0.604100
     26 O1           4.1420    -0.7000    -3.9350 os         1 EPH      -0.426100
     27 O3           4.0350    -2.9590    -4.3570 o          1 EPH      -0.515000
     28 C5           2.5230    -1.4650    -5.5320 c3         1 EPH      -0.142400
     29 C6           1.1550    -1.5950    -4.8230 c3         1 EPH      -0.066400
     30 C7          -0.0410    -1.3240    -5.7610 c3         1 EPH      -0.076400
     31 C8          -1.4050    -1.5050    -5.0600 c3         1 EPH      -0.074400
     32 C9          -2.6090    -1.2810    -6.0010 c3         1 EPH      -0.075400
     33 C10         -3.9670    -1.5070    -5.2990 c3         1 EPH      -0.072400
     34 C11         -5.1790    -1.3250    -6.2350 c3         1 EPH      -0.043200
     35 C12         -6.4940    -1.5550    -5.5180 c2         1 EPH      -0.210200
     36 C13         -7.4500    -0.6300    -5.3380 c2         1 EPH      -0.223200
     37 C14         -8.7670    -0.8580    -4.6280 c3         1 EPH      -0.006000
     38 C15         -8.9970     0.2050    -3.5760 c2         1 EPH      -0.211200
     39 C16        -10.0890     0.9810    -3.4800 c2         1 EPH      -0.223200
     40 C17        -10.3130     2.0470    -2.4280 c3         1 EPH      -0.041200
     41 C35        -10.3450     3.4640    -3.0390 c3         1 EPH      -0.073400
     42 C36        -10.5670     4.5710    -1.9890 c3         1 EPH      -0.089100
     43 P1           7.3470     1.0320    -4.9670 p5         1 EPH       1.395800
     44 O6           8.0930     1.3460    -3.7140 o          1 EPH      -0.823500
     45 O7           8.1680     1.3070    -6.1810 o          1 EPH      -0.823500
     46 O8           5.9430     1.8110    -5.0190 os         1 EPH      -0.611400
     47 C38          5.1820     1.7810    -6.2350 c3         1 EPH       0.229600
     48 C39          3.8290     2.5120    -5.9880 c3         1 EPH       0.142800
     49 N1           3.9810     3.9410    -5.6150 n8         1 EPH      -0.996200
     50 H11          6.2950     0.5010    -1.6440 h1         1 EPH       0.094200
     51 H12A         5.2240     1.3350    -2.7900 h1         1 EPH       0.094200
     52 H2           5.0210    -1.6510    -2.2910 h1         1 EPH       0.059700
     53 H181         2.4640     2.3080     0.7940 hc         1 EPH       0.066200
     54 H182         2.2300     0.6130     0.2230 hc         1 EPH       0.066200
     55 H191         3.8960    -0.2020     1.8310 hc         1 EPH       0.054200
     56 H192         4.2450     1.4420     2.3650 hc         1 EPH       0.054200
     57 H201         1.8860     1.6800     3.1960 hc         1 EPH       0.035200
     58 H202         1.5330     0.0310     2.6750 hc         1 EPH       0.035200
     59 H211         3.2470    -0.8580     4.2620 hc         1 EPH       0.040200
     60 H212         3.6610     0.7850     4.7550 hc         1 EPH       0.040200
     61 H221         1.3350     1.1160     5.6370 hc         1 EPH       0.038200
     62 H222         0.9090    -0.5250     5.1470 hc         1 EPH       0.038200
     63 H231         2.6240    -1.4570     6.7000 hc         1 EPH       0.044700
     64 H232         3.1190     0.1660     7.1610 hc         1 EPH       0.044700
     65 H24          0.8920     0.6080     8.2230 ha         1 EPH       0.164000
     66 H25          0.9590    -2.4810     8.2190 ha         1 EPH       0.166000
     67 H261        -0.0340    -2.0290    10.4710 hc         1 EPH       0.043200
     68 H262        -0.5010    -0.4060     9.9880 hc         1 EPH       0.043200
     69 H271        -2.0940    -1.3590     8.3040 hc         1 EPH       0.047200
     70 H272        -1.6560    -2.9870     8.8050 hc         1 EPH       0.047200
     71 H28         -2.5730    -2.5660    11.1160 ha         1 EPH       0.164000
     72 H29         -4.0580    -0.4150     9.4670 ha         1 EPH       0.167000
     73 H301        -5.8650    -1.1720    11.0610 hc         1 EPH       0.044200
     74 H302        -4.6550    -1.7760    12.1840 hc         1 EPH       0.044200
     75 H311        -3.7660     0.5730    12.4550 hc         1 EPH       0.046700
     76 H312        -5.0530     1.1610    11.4140 hc         1 EPH       0.046700
     77 H32         -6.7940     0.3670    13.0750 ha         1 EPH       0.164000
     78 H33         -4.2930     0.7180    14.8560 ha         1 EPH       0.165000
     79 H341        -6.0720    -0.1020    16.5080 hc         1 EPH       0.037367
     80 H342        -6.1670     1.6570    16.3210 hc         1 EPH       0.037367
     81 H343        -7.3350     0.6130    15.4940 hc         1 EPH       0.037367
     82 H371         7.3990    -1.1350    -3.0460 h1         1 EPH       0.045200
     83 H372         6.5030    -2.3070    -3.9910 h1         1 EPH       0.045200
     84 H51          2.5500    -2.1510    -6.3870 hc         1 EPH       0.072200
     85 H52          2.6310    -0.4270    -5.8650 hc         1 EPH       0.072200
     86 H61          1.1190    -0.8970    -3.9750 hc         1 EPH       0.050200
     87 H62          1.0620    -2.6060    -4.4070 hc         1 EPH       0.050200
     88 H71          0.0140    -2.0060    -6.6190 hc         1 EPH       0.037200
     89 H72          0.0320    -0.3030    -6.1570 hc         1 EPH       0.037200
     90 H81         -1.4720    -0.8080    -4.2150 hc         1 EPH       0.038200
     91 H82         -1.4610    -2.5190    -4.6430 hc         1 EPH       0.038200
     92 H91         -2.5280    -1.9620    -6.8570 hc         1 EPH       0.036700
     93 H92         -2.5720    -0.2590    -6.3990 hc         1 EPH       0.036700
     94 H101        -4.0580    -0.8100    -4.4560 hc         1 EPH       0.039200
     95 H102        -3.9900    -2.5210    -4.8790 hc         1 EPH       0.039200
     96 H111        -5.0930    -2.0250    -7.0760 hc         1 EPH       0.043700
     97 H112        -5.1510    -0.3160    -6.6660 hc         1 EPH       0.043700
     98 H12         -6.6290    -2.5700    -5.1400 ha         1 EPH       0.164000
     99 H13         -7.3180     0.3850    -5.7190 ha         1 EPH       0.168000
    100 H141        -8.7820    -1.8500    -4.1590 hc         1 EPH       0.046700
    101 H142        -9.5840    -0.8530    -5.3600 hc         1 EPH       0.046700
    102 H15         -8.1780     0.3110    -2.8610 ha         1 EPH       0.170000
    103 H16        -10.9090     0.8730    -4.1930 ha         1 EPH       0.163000
    104 H171        -9.5230     2.0050    -1.6680 hc         1 EPH       0.042700
    105 H172       -11.2590     1.8570    -1.9050 hc         1 EPH       0.042700
    106 H351       -11.1430     3.5190    -3.7900 hc         1 EPH       0.039700
    107 H352        -9.4000     3.6520    -3.5620 hc         1 EPH       0.039700
    108 H361       -10.5770     5.5560    -2.4700 hc         1 EPH       0.031033
    109 H362       -11.5250     4.4310    -1.4740 hc         1 EPH       0.031033
    110 H363        -9.7660     4.5620    -1.2400 hc         1 EPH       0.031033
    111 H381         5.7230     2.2810    -7.0500 h1         1 EPH       0.026700
    112 H382         4.9780     0.7460    -6.5420 h1         1 EPH       0.026700
    113 H391         3.2040     2.4530    -6.8890 h1         1 EPH       0.010700
    114 H392         3.2980     2.0020    -5.1740 h1         1 EPH       0.010700
    115 HN11         3.0900     4.2850    -5.2370 hn         1 EPH       0.395500
    116 HN12         4.6220     3.9840    -4.8130 hn         1 EPH       0.395500
@<TRIPOS>BOND
     1     1     2 1   
     2     1     4 1   
     3     1    50 1   
     4     1    51 1   
     5     2    23 1   
     6     2    26 1   
     7     2    52 1   
     8     3     4 1   
     9     3     5 2   
    10     3     6 1   
    11     6     7 1   
    12     6    53 1   
    13     6    54 1   
    14     7     8 1   
    15     7    55 1   
    16     7    56 1   
    17     8     9 1   
    18     8    57 1   
    19     8    58 1   
    20     9    10 1   
    21     9    59 1   
    22     9    60 1   
    23    10    11 1   
    24    10    61 1   
    25    10    62 1   
    26    11    12 1   
    27    11    63 1   
    28    11    64 1   
    29    12    13 2   
    30    12    65 1   
    31    13    14 1   
    32    13    66 1   
    33    14    15 1   
    34    14    67 1   
    35    14    68 1   
    36    15    16 1   
    37    15    69 1   
    38    15    70 1   
    39    16    17 2   
    40    16    71 1   
    41    17    18 1   
    42    17    72 1   
    43    18    19 1   
    44    18    73 1   
    45    18    74 1   
    46    19    20 1   
    47    19    75 1   
    48    19    76 1   
    49    20    21 2   
    50    20    77 1   
    51    21    22 1   
    52    21    78 1   
    53    22    79 1   
    54    22    80 1   
    55    22    81 1   
    56    23    24 1   
    57    23    82 1   
    58    23    83 1   
    59    24    43 1   
    60    25    26 1   
    61    25    27 2   
    62    25    28 1   
    63    28    29 1   
    64    28    84 1   
    65    28    85 1   
    66    29    30 1   
    67    29    86 1   
    68    29    87 1   
    69    30    31 1   
    70    30    88 1   
    71    30    89 1   
    72    31    32 1   
    73    31    90 1   
    74    31    91 1   
    75    32    33 1   
    76    32    92 1   
    77    32    93 1   
    78    33    34 1   
    79    33    94 1   
    80    33    95 1   
    81    34    35 1   
    82    34    96 1   
    83    34    97 1   
    84    35    36 2   
    85    35    98 1   
    86    36    37 1   
    87    36    99 1   
    88    37    38 1   
    89    37   100 1   
    90    37   101 1   
    91    38    39 2   
    92    38   102 1   
    93    39    40 1   
    94    39   103 1   
    95    40    41 1   
    96    40   104 1   
    97    40   105 1   
    98    41    42 1   
    99    41   106 1   
   100    41   107 1   
   101    42   108 1   
   102    42   109 1   
   103    42   110 1   
   104    43    44 1   
   105    43    45 1   
   106    43    46 1   
   107    46    47 1   
   108    47    48 1   
   109    47   111 1   
   110    47   112 1   
   111    48    49 1   
   112    48   113 1   
   113    48   114 1   
   114    49   115 1   
   115    49   116 1   
@<TRIPOS>SUBSTRUCTURE
     1 EPH         1 TEMP              0 ****  ****    0 ROOT
