@<TRIPOS>MOLECULE
EPH
  116   115     1     0     0
SMALL
bcc


@<TRIPOS>ATOM
      1 C1           4.8330    -1.0410    -2.2720 c3         1 EPH       0.125400
      2 C2           4.0320    -1.8380    -3.2760 c3         1 EPH       0.127100
      3 C4           4.5150    -0.2370    -0.0710 c          1 EPH       0.644100
      4 O2           4.0060    -0.8780    -1.1180 os         1 EPH      -0.434900
      5 O4           5.6290     0.2260    -0.0550 o          1 EPH      -0.538000
      6 C18          3.5290    -0.1770     1.0630 c3         1 EPH      -0.141400
      7 C19          4.0930     0.4150     2.3440 c3         1 EPH      -0.067400
      8 C20          3.0580     0.4160     3.4620 c3         1 EPH      -0.076400
      9 C21          3.5860     0.9900     4.7700 c3         1 EPH      -0.075400
     10 C22          2.5490     0.9660     5.8850 c3         1 EPH      -0.072400
     11 C23          3.0670     1.5420     7.2020 c3         1 EPH      -0.042200
     12 C24          2.0190     1.5460     8.2700 c2         1 EPH      -0.160200
     13 C25          2.0980     0.8980     9.4290 c2         1 EPH      -0.178200
     14 C26          1.0320     0.8810    10.4780 c3         1 EPH      -0.036200
     15 C27          0.5260    -0.5390    10.7660 c3         1 EPH      -0.040200
     16 C28         -0.4900    -0.5660    11.8640 c2         1 EPH      -0.165200
     17 C29         -1.7510    -0.9660    11.7270 c2         1 EPH      -0.173200
     18 C30         -2.7780    -0.9670    12.8140 c3         1 EPH      -0.037200
     19 C31         -3.9630    -0.0470    12.4890 c3         1 EPH      -0.039200
     20 C32         -5.0420    -0.1210    13.5230 c2         1 EPH      -0.170200
     21 C33         -5.4710     0.9030    14.2550 c2         1 EPH      -0.170200
     22 C34         -6.5470     0.8290    15.2890 c3         1 EPH      -0.055900
     23 C37          4.8690    -2.3200    -4.4480 c3         1 EPH       0.192400
     24 O5           5.4610    -1.2600    -5.1640 os         1 EPH      -0.565200
     25 C3           1.8110    -1.5220    -4.0920 c          1 EPH       0.653100
     26 O1           2.9700    -0.9840    -3.7210 os         1 EPH      -0.402900
     27 O3           1.5830    -2.7050    -4.0610 o          1 EPH      -0.564000
     28 C5           0.8460    -0.4660    -4.5580 c3         1 EPH      -0.142400
     29 C6          -0.5180    -1.0110    -4.9490 c3         1 EPH      -0.066400
     30 C7          -1.4440     0.0870    -5.4550 c3         1 EPH      -0.076400
     31 C8          -2.8190    -0.4330    -5.8550 c3         1 EPH      -0.074400
     32 C9          -3.7390     0.6560    -6.3920 c3         1 EPH      -0.075400
     33 C10         -5.1140     0.1360    -6.7900 c3         1 EPH      -0.072400
     34 C11         -6.0260     1.2300    -7.3490 c3         1 EPH      -0.043200
     35 C12         -7.3570     0.7000    -7.7770 c2         1 EPH      -0.160200
     36 C13         -8.5310     1.0760    -7.2800 c2         1 EPH      -0.173200
     37 C14         -9.8600     0.5130    -7.6930 c3         1 EPH      -0.006000
     38 C15        -10.5350    -0.1920    -6.5530 c2         1 EPH      -0.161200
     39 C16        -11.6890     0.1780    -6.0040 c2         1 EPH      -0.173200
     40 C17        -12.3540    -0.5010    -4.8490 c3         1 EPH      -0.041200
     41 C35        -12.5010     0.4160    -3.6340 c3         1 EPH      -0.073400
     42 C36        -13.2310    -0.2600    -2.4820 c3         1 EPH      -0.089100
     43 P1           7.0620    -0.9060    -5.0550 p5         1 EPH       1.395800
     44 O6           7.7150    -1.7810    -4.0280 o          1 EPH      -0.823500
     45 O7           7.6130    -0.8180    -6.4440 o          1 EPH      -0.823500
     46 O8           6.8620     0.6110    -4.4610 os         1 EPH      -0.588200
     47 C38          7.9810     1.4860    -4.4630 c3         1 EPH       0.206400
     48 C39          7.8940     2.4050    -3.2660 c3         1 EPH       0.142800
     49 N1           8.0790     1.6710    -2.0250 n8         1 EPH      -0.885800
     50 H11          5.7450    -1.5850    -2.0190 h1         1 EPH       0.094200
     51 H12A         5.1200    -0.0680    -2.6750 h1         1 EPH       0.094200
     52 H2           3.6250    -2.7270    -2.7850 h1         1 EPH       0.059700
     53 H181         2.6630     0.4020     0.7240 hc         1 EPH       0.066200
     54 H182         3.1520    -1.1880     1.2410 hc         1 EPH       0.066200
     55 H191         4.9700    -0.1550     2.6620 hc         1 EPH       0.054200
     56 H192         4.4360     1.4370     2.1620 hc         1 EPH       0.054200
     57 H201         2.1780     0.9860     3.1440 hc         1 EPH       0.035200
     58 H202         2.7100    -0.6090     3.6320 hc         1 EPH       0.035200
     59 H211         4.4720     0.4260     5.0840 hc         1 EPH       0.040200
     60 H212         3.9220     2.0190     4.6070 hc         1 EPH       0.040200
     61 H221         1.6620     1.5250     5.5680 hc         1 EPH       0.038200
     62 H222         2.2160    -0.0640     6.0520 hc         1 EPH       0.038200
     63 H231         3.9410     0.9740     7.5360 hc         1 EPH       0.044700
     64 H232         3.4110     2.5680     7.0270 hc         1 EPH       0.044700
     65 H24          1.1200     2.1210     8.0500 ha         1 EPH       0.114000
     66 H25          2.9930     0.3180     9.6480 ha         1 EPH       0.116000
     67 H261         1.4240     1.3080    11.4080 hc         1 EPH       0.043200
     68 H262         0.1930     1.5130    10.1730 hc         1 EPH       0.043200
     69 H271         0.1070    -0.9700     9.8530 hc         1 EPH       0.047200
     70 H272         1.3820    -1.1650    11.0440 hc         1 EPH       0.047200
     71 H28         -0.1530    -0.2150    12.8380 ha         1 EPH       0.114000
     72 H29         -2.0890    -1.3090    10.7510 ha         1 EPH       0.117000
     73 H301        -3.1560    -1.9850    12.9600 hc         1 EPH       0.044200
     74 H302        -2.3270    -0.6620    13.7620 hc         1 EPH       0.044200
     75 H311        -3.6070     0.9820    12.3850 hc         1 EPH       0.046700
     76 H312        -4.3710    -0.3360    11.5140 hc         1 EPH       0.046700
     77 H32         -5.4880    -1.1020    13.6770 ha         1 EPH       0.114000
     78 H33         -5.0200     1.8810    14.1010 ha         1 EPH       0.115000
     79 H341        -6.1770     1.1440    16.2680 hc         1 EPH       0.037367
     80 H342        -7.3770     1.4960    15.0430 hc         1 EPH       0.037367
     81 H343        -6.9460    -0.1800    15.3890 hc         1 EPH       0.037367
     82 H371         5.6130    -3.0200    -4.0600 h1         1 EPH       0.045200
     83 H372         4.2280    -2.8780    -5.1350 h1         1 EPH       0.045200
     84 H51          1.3060     0.0550    -5.4040 hc         1 EPH       0.072200
     85 H52          0.7500     0.2890    -3.7710 hc         1 EPH       0.072200
     86 H61         -0.9780    -1.5080    -4.0900 hc         1 EPH       0.050200
     87 H62         -0.4040    -1.7740    -5.7230 hc         1 EPH       0.050200
     88 H71         -0.9820     0.5850    -6.3150 hc         1 EPH       0.037200
     89 H72         -1.5580     0.8580    -4.6860 hc         1 EPH       0.037200
     90 H81         -3.2900    -0.9150    -4.9910 hc         1 EPH       0.038200
     91 H82         -2.7040    -1.2160    -6.6120 hc         1 EPH       0.038200
     92 H91         -3.2680     1.1330    -7.2590 hc         1 EPH       0.036700
     93 H92         -3.8520     1.4420    -5.6380 hc         1 EPH       0.036700
     94 H101        -5.5980    -0.3260    -5.9230 hc         1 EPH       0.039200
     95 H102        -5.0020    -0.6570    -7.5360 hc         1 EPH       0.039200
     96 H111        -5.5270     1.6950    -8.2070 hc         1 EPH       0.043700
     97 H112        -6.1580     2.0180    -6.6010 hc         1 EPH       0.043700
     98 H12         -7.3370    -0.0660    -8.5500 ha         1 EPH       0.114000
     99 H13         -8.5600     1.8340    -6.4990 ha         1 EPH       0.118000
    100 H141        -9.7150    -0.1830    -8.5250 hc         1 EPH       0.046700
    101 H142       -10.5080     1.3150    -8.0600 hc         1 EPH       0.046700
    102 H15        -10.0100    -1.0580    -6.1550 ha         1 EPH       0.120000
    103 H16        -12.2040     1.0510    -6.4030 ha         1 EPH       0.113000
    104 H171       -11.7940    -1.3970    -4.5660 hc         1 EPH       0.042700
    105 H172       -13.3510    -0.8400    -5.1530 hc         1 EPH       0.042700
    106 H351       -13.0370     1.3240    -3.9280 hc         1 EPH       0.039700
    107 H352       -11.5090     0.7400    -3.3070 hc         1 EPH       0.039700
    108 H361       -13.3150     0.4000    -1.6190 hc         1 EPH       0.031033
    109 H362       -14.2400    -0.5550    -2.7750 hc         1 EPH       0.031033
    110 H363       -12.7050    -1.1610    -2.1610 hc         1 EPH       0.031033
    111 H381         8.9280     0.9360    -4.4170 h1         1 EPH       0.026700
    112 H382         7.9900     2.0780    -5.3830 h1         1 EPH       0.026700
    113 H391         8.6980     3.1400    -3.3600 h1         1 EPH       0.010700
    114 H392         6.9520     2.9700    -3.3180 h1         1 EPH       0.010700
    115 HN11         8.0150     2.3080    -1.2420 hn         1 EPH       0.340300
    116 HN12         7.3220     1.0110    -1.9020 hn         1 EPH       0.340300
@<TRIPOS>BOND
     1     1     2 1   
     2     1     4 1   
     3     1    50 1   
     4     1    51 1   
     5     2    23 1   
     6     2    26 1   
     7     2    52 1   
     8     3     4 1   
     9     3     5 2   
    10     3     6 1   
    11     6     7 1   
    12     6    53 1   
    13     6    54 1   
    14     7     8 1   
    15     7    55 1   
    16     7    56 1   
    17     8     9 1   
    18     8    57 1   
    19     8    58 1   
    20     9    10 1   
    21     9    59 1   
    22     9    60 1   
    23    10    11 1   
    24    10    61 1   
    25    10    62 1   
    26    11    12 1   
    27    11    63 1   
    28    11    64 1   
    29    12    13 2   
    30    12    65 1   
    31    13    14 1   
    32    13    66 1   
    33    14    15 1   
    34    14    67 1   
    35    14    68 1   
    36    15    16 1   
    37    15    69 1   
    38    15    70 1   
    39    16    17 2   
    40    16    71 1   
    41    17    18 1   
    42    17    72 1   
    43    18    19 1   
    44    18    73 1   
    45    18    74 1   
    46    19    20 1   
    47    19    75 1   
    48    19    76 1   
    49    20    21 2   
    50    20    77 1   
    51    21    22 1   
    52    21    78 1   
    53    22    79 1   
    54    22    80 1   
    55    22    81 1   
    56    23    24 1   
    57    23    82 1   
    58    23    83 1   
    59    24    43 1   
    60    25    26 1   
    61    25    27 2   
    62    25    28 1   
    63    28    29 1   
    64    28    84 1   
    65    28    85 1   
    66    29    30 1   
    67    29    86 1   
    68    29    87 1   
    69    30    31 1   
    70    30    88 1   
    71    30    89 1   
    72    31    32 1   
    73    31    90 1   
    74    31    91 1   
    75    32    33 1   
    76    32    92 1   
    77    32    93 1   
    78    33    34 1   
    79    33    94 1   
    80    33    95 1   
    81    34    35 1   
    82    34    96 1   
    83    34    97 1   
    84    35    36 2   
    85    35    98 1   
    86    36    37 1   
    87    36    99 1   
    88    37    38 1   
    89    37   100 1   
    90    37   101 1   
    91    38    39 2   
    92    38   102 1   
    93    39    40 1   
    94    39   103 1   
    95    40    41 1   
    96    40   104 1   
    97    40   105 1   
    98    41    42 1   
    99    41   106 1   
   100    41   107 1   
   101    42   108 1   
   102    42   109 1   
   103    42   110 1   
   104    43    44 1   
   105    43    45 1   
   106    43    46 1   
   107    46    47 1   
   108    47    48 1   
   109    47   111 1   
   110    47   112 1   
   111    48    49 1   
   112    48   113 1   
   113    48   114 1   
   114    49   115 1   
   115    49   116 1   
@<TRIPOS>SUBSTRUCTURE
     1 EPH         1 TEMP              0 ****  ****    0 ROOT
