@<TRIPOS>MOLECULE
EPI
   23    23     1     0     0
SMALL
No Charge or Current Charge


@<TRIPOS>ATOM
      1 N1           0.3290     0.1680    -2.2890 n7         1 EPI      -0.862400
      2 C2          -0.9910    -0.3490    -1.8570 c6         1 EPI       0.160300
      3 C3          -1.3440     0.1340    -0.4290 c6         1 EPI      -0.072400
      4 C4          -0.2370    -0.2510     0.5920 c6         1 EPI      -0.060700
      5 C5           1.1390     0.2640     0.0800 c6         1 EPI      -0.072400
      6 C6           1.4210    -0.2170    -1.3650 c6         1 EPI       0.160300
      7 C1          -0.5870     0.2640     2.0220 c3         1 EPI      -0.070400
      8 C7           0.3790    -0.1830     3.1400 c3         1 EPI      -0.088100
      9 HN1          0.5400    -0.2040    -3.2250 hn         1 EPI       0.408000
     10 H21         -0.9760    -1.4490    -1.8790 h1         1 EPI       0.026700
     11 H22         -1.7650    -0.0120    -2.5620 h1         1 EPI       0.026700
     12 H31         -2.3060    -0.3010    -0.1250 hc         1 EPI       0.045450
     13 H32         -1.4830     1.2240    -0.4370 hc         1 EPI       0.045450
     14 H4          -0.1960    -1.3480     0.6560 hc         1 EPI       0.040700
     15 H51          1.1630     1.3620     0.1110 hc         1 EPI       0.045450
     16 H52          1.9490    -0.0850     0.7340 hc         1 EPI       0.045450
     17 H61          1.5320    -1.3120    -1.3700 h1         1 EPI       0.026700
     18 H62          2.3700     0.2140    -1.7190 h1         1 EPI       0.026700
     19 H1'1        -1.5920    -0.0820     2.2930 hc         1 EPI       0.038200
     20 H1'2        -0.6340     1.3610     2.0220 hc         1 EPI       0.038200
     21 H2'1         0.0050     0.1450     4.1170 hc         1 EPI       0.031033
     22 H2'2         0.4720    -1.2750     3.1590 hc         1 EPI       0.031033
     23 H2'3         1.3760     0.2510     2.9990 hc         1 EPI       0.031033
@<TRIPOS>BOND
     1     1     2 1   
     2     1     6 1   
     3     1     9 1   
     4     2     3 1   
     5     2    10 1   
     6     2    11 1   
     7     3     4 1   
     8     3    12 1   
     9     3    13 1   
    10     4     5 1   
    11     4     7 1   
    12     4    14 1   
    13     5     6 1   
    14     5    15 1   
    15     5    16 1   
    16     6    17 1   
    17     6    18 1   
    18     7     8 1   
    19     7    19 1   
    20     7    20 1   
    21     8    21 1   
    22     8    22 1   
    23     8    23 1   
@<TRIPOS>SUBSTRUCTURE
     1 EPI         1 TEMP              0 ****  ****    0 ROOT
