@<TRIPOS>MOLECULE
EPI
   23    23     1     0     0
SMALL
bcc


@<TRIPOS>ATOM
      1 N1           0.3170     0.2040    -2.2180 n7         1 EPI      -0.807200
      2 C2          -0.9600    -0.3600    -1.8190 c6         1 EPI       0.160300
      3 C3          -1.3230     0.1140    -0.4200 c6         1 EPI      -0.072400
      4 C4          -0.2370    -0.2510     0.5930 c6         1 EPI      -0.060700
      5 C5           1.1150     0.2510     0.0880 c6         1 EPI      -0.072400
      6 C6           1.3870    -0.2210    -1.3340 c6         1 EPI       0.160300
      7 C1          -0.5830     0.2710     1.9860 c3         1 EPI      -0.070400
      8 C7           0.3750    -0.1800     3.0810 c3         1 EPI      -0.088100
      9 HN1          0.5290    -0.0790    -3.1660 hn         1 EPI       0.352800
     10 H21         -0.9520    -1.4640    -1.8280 h1         1 EPI       0.026700
     11 H22         -1.7250    -0.0440    -2.5330 h1         1 EPI       0.026700
     12 H31         -2.2790    -0.3230    -0.1190 hc         1 EPI       0.045450
     13 H32         -1.4570     1.2010    -0.4320 hc         1 EPI       0.045450
     14 H4          -0.1880    -1.3480     0.6460 hc         1 EPI       0.040700
     15 H51          1.1260     1.3470     0.1140 hc         1 EPI       0.045450
     16 H52          1.9240    -0.0910     0.7370 hc         1 EPI       0.045450
     17 H61          1.5120    -1.3170    -1.3230 h1         1 EPI       0.026700
     18 H62          2.3290     0.1990    -1.6930 h1         1 EPI       0.026700
     19 H1'1        -1.5950    -0.0580     2.2410 hc         1 EPI       0.038200
     20 H1'2        -0.6200     1.3660     1.9580 hc         1 EPI       0.038200
     21 H2'1         0.0610     0.1940     4.0560 hc         1 EPI       0.031033
     22 H2'2         0.4170    -1.2690     3.1430 hc         1 EPI       0.031033
     23 H2'3         1.3910     0.1780     2.9100 hc         1 EPI       0.031033
@<TRIPOS>BOND
     1     1     2 1   
     2     1     6 1   
     3     1     9 1   
     4     2     3 1   
     5     2    10 1   
     6     2    11 1   
     7     3     4 1   
     8     3    12 1   
     9     3    13 1   
    10     4     5 1   
    11     4     7 1   
    12     4    14 1   
    13     5     6 1   
    14     5    15 1   
    15     5    16 1   
    16     6    17 1   
    17     6    18 1   
    18     7     8 1   
    19     7    19 1   
    20     7    20 1   
    21     8    21 1   
    22     8    22 1   
    23     8    23 1   
@<TRIPOS>SUBSTRUCTURE
     1 EPI         1 TEMP              0 ****  ****    0 ROOT
