@<TRIPOS>MOLECULE
EPK
   40    42     1     0     0
SMALL
No Charge or Current Charge


@<TRIPOS>ATOM
      1 C1          -0.6620     1.7930    -0.1210 cc         1 EPK      -0.412600
      2 C2           0.2190     0.7590    -0.1050 cd         1 EPK       0.251400
      3 C3          -1.5800    -0.6710    -0.2060 cc         1 EPK       0.741800
      4 N1          -2.5260     0.3410    -0.2240 n          1 EPK      -0.350300
      5 N2          -0.2650    -0.5340    -0.1640 nd         1 EPK      -0.705100
      6 C4          -2.0980     1.6590    -0.1820 c          1 EPK       0.622600
      7 C5           1.6030     1.1540    -0.0630 cd         1 EPK      -0.059000
      8 S1           0.1510     3.3380    -0.0880 ss         1 EPK       0.293000
      9 C6           1.7140     2.5310    -0.1040 cc         1 EPK      -0.211000
     10 N3          -2.0280    -1.9620    -0.2330 nu         1 EPK      -0.903400
     11 O1          -2.8540     2.6210    -0.1930 o          1 EPK      -0.548000
     12 C7           2.7920     0.2560    -0.0810 ca         1 EPK      -0.054000
     13 N4           3.7900    -1.9620     0.2400 nb         1 EPK      -0.675000
     14 C8          -3.9920     0.0790    -0.3130 c3         1 EPK       0.078000
     15 C9           2.7200    -1.1250     0.2420 ca         1 EPK       0.363900
     16 C10         -1.2330    -3.1950    -0.1590 c3         1 EPK       0.244500
     17 C11          4.9930    -1.4490    -0.0900 ca         1 EPK       0.332900
     18 C12          4.0690     0.7680    -0.4090 ca         1 EPK      -0.070000
     19 C13         -4.6320    -0.2350     1.0530 c3         1 EPK      -0.114100
     20 C14         -1.0090    -3.5730     1.3180 c3         1 EPK      -0.111100
     21 C15         -1.9610    -4.3050    -0.9370 c3         1 EPK      -0.111100
     22 C16          5.1750    -0.0980    -0.4160 ca         1 EPK      -0.168000
     23 H1           2.5980     3.1520    -0.1070 h4         1 EPK       0.150000
     24 H2          -3.0330    -2.0480    -0.1660 hn         1 EPK       0.495000
     25 H3          -4.5050     0.9460    -0.7490 h1         1 EPK       0.067200
     26 H4          -4.1790    -0.7510    -1.0080 h1         1 EPK       0.067200
     27 H5           1.7940    -1.5950     0.5570 h4         1 EPK       0.032100
     28 H6          -0.2490    -3.0510    -0.6320 h1         1 EPK       0.089700
     29 H7           5.8350    -2.1400    -0.0880 h4         1 EPK       0.016100
     30 H8           4.2150     1.8110    -0.6750 ha         1 EPK       0.117000
     31 H9          -5.7060    -0.4220     0.9360 hc         1 EPK       0.047033
     32 H10         -4.1770    -1.1190     1.5130 hc         1 EPK       0.047033
     33 H11         -4.5060     0.6120     1.7380 hc         1 EPK       0.047033
     34 H12         -0.4140    -4.4910     1.3920 hc         1 EPK       0.045033
     35 H13         -0.4690    -2.7770     1.8440 hc         1 EPK       0.045033
     36 H14         -1.9640    -3.7390     1.8300 hc         1 EPK       0.045033
     37 H15         -2.0980    -4.0140    -1.9860 hc         1 EPK       0.045033
     38 H16         -1.3770    -5.2320    -0.9160 hc         1 EPK       0.045033
     39 H17         -2.9470    -4.5110    -0.5030 hc         1 EPK       0.045033
     40 H18          6.1640     0.2690    -0.6730 ha         1 EPK       0.121000
@<TRIPOS>BOND
     1     1     2 2   
     2     1     6 1   
     3     1     8 1   
     4     2     5 1   
     5     2     7 1   
     6     3     4 1   
     7     3     5 2   
     8     3    10 1   
     9     4     6 1   
    10     4    14 1   
    11     6    11 2   
    12     7     9 2   
    13     7    12 1   
    14     8     9 1   
    15     9    23 1   
    16    10    16 1   
    17    10    24 1   
    18    12    15 ar  
    19    12    18 ar  
    20    13    15 ar  
    21    13    17 ar  
    22    14    19 1   
    23    14    25 1   
    24    14    26 1   
    25    15    27 1   
    26    16    20 1   
    27    16    21 1   
    28    16    28 1   
    29    17    22 ar  
    30    17    29 1   
    31    18    22 ar  
    32    18    30 1   
    33    19    31 1   
    34    19    32 1   
    35    19    33 1   
    36    20    34 1   
    37    20    35 1   
    38    20    36 1   
    39    21    37 1   
    40    21    38 1   
    41    21    39 1   
    42    22    40 1   
@<TRIPOS>SUBSTRUCTURE
     1 EPK         1 TEMP              0 ****  ****    0 ROOT
