@<TRIPOS>MOLECULE
EPK
   40    42     1     0     0
SMALL
abcg2


@<TRIPOS>ATOM
      1 C1          -0.6850     1.8420    -0.0600 cc         1 EPK      -0.412600
      2 C2           0.1630     0.7560    -0.0790 cd         1 EPK       0.251400
      3 C3          -1.5700    -0.6940    -0.2430 cc         1 EPK       0.741800
      4 N1          -2.4860     0.3390    -0.2530 n          1 EPK      -0.350300
      5 N2          -0.2770    -0.5120    -0.1680 nd         1 EPK      -0.705100
      6 C4          -2.0960     1.6790    -0.1340 c          1 EPK       0.622600
      7 C5           1.5430     1.1530     0.0050 cd         1 EPK      -0.059000
      8 S1           0.1500     3.3400     0.0610 ss         1 EPK       0.293000
      9 C6           1.6510     2.5120     0.0810 cc         1 EPK      -0.211000
     10 N3          -2.0340    -1.9500    -0.3390 nu         1 EPK      -0.903400
     11 O1          -2.9160     2.5840    -0.1050 o          1 EPK      -0.548000
     12 C7           2.6860     0.2350    -0.0040 ca         1 EPK      -0.054000
     13 N4           3.6540    -1.8460     0.7030 nb         1 EPK      -0.675000
     14 C8          -3.9250     0.0760    -0.3380 c3         1 EPK       0.078000
     15 C9           2.6410    -0.9920     0.6630 ca         1 EPK       0.363900
     16 C10         -1.1630    -3.1180    -0.2740 c3         1 EPK       0.244500
     17 C11          4.7770    -1.5190     0.0740 ca         1 EPK       0.332900
     18 C12          3.8720     0.5580    -0.6590 ca         1 EPK      -0.070000
     19 C13         -4.5480    -0.2140     1.0180 c3         1 EPK      -0.114100
     20 C14         -0.7840    -3.4550     1.1640 c3         1 EPK      -0.111100
     21 C15         -1.8620    -4.2800    -0.9610 c3         1 EPK      -0.111100
     22 C16          4.9360    -0.3280    -0.6170 ca         1 EPK      -0.168000
     23 H1           2.5630     3.0830     0.1700 h4         1 EPK       0.150000
     24 H2          -3.0180    -2.1280    -0.2380 hn         1 EPK       0.495000
     25 H3          -4.3890     0.9540    -0.7780 h1         1 EPK       0.067200
     26 H4          -4.0950    -0.7340    -1.0460 h1         1 EPK       0.067200
     27 H5           1.7430    -1.2880     1.1900 h4         1 EPK       0.032100
     28 H6          -0.2570    -2.8720    -0.8270 h1         1 EPK       0.089700
     29 H7           5.5890    -2.2370     0.1220 h4         1 EPK       0.016100
     30 H8           3.9580     1.4870    -1.2080 ha         1 EPK       0.117000
     31 H9          -5.6120    -0.4110     0.8960 hc         1 EPK       0.047033
     32 H10         -4.1040    -1.0810     1.5070 hc         1 EPK       0.047033
     33 H11         -4.4380     0.6410     1.6840 hc         1 EPK       0.047033
     34 H12         -0.0820    -4.2890     1.1860 hc         1 EPK       0.045033
     35 H13         -0.3100    -2.6050     1.6540 hc         1 EPK       0.045033
     36 H14         -1.6640    -3.7410     1.7430 hc         1 EPK       0.045033
     37 H15         -2.1170    -4.0370    -1.9920 hc         1 EPK       0.045033
     38 H16         -1.2120    -5.1550    -0.9710 hc         1 EPK       0.045033
     39 H17         -2.7790    -4.5570    -0.4360 hc         1 EPK       0.045033
     40 H18          5.8670    -0.1060    -1.1190 ha         1 EPK       0.121000
@<TRIPOS>BOND
     1     1     2 2   
     2     1     6 1   
     3     1     8 1   
     4     2     5 1   
     5     2     7 1   
     6     3     4 1   
     7     3     5 2   
     8     3    10 1   
     9     4     6 1   
    10     4    14 1   
    11     6    11 2   
    12     7     9 2   
    13     7    12 1   
    14     8     9 1   
    15     9    23 1   
    16    10    16 1   
    17    10    24 1   
    18    12    15 ar  
    19    12    18 ar  
    20    13    15 ar  
    21    13    17 ar  
    22    14    19 1   
    23    14    25 1   
    24    14    26 1   
    25    15    27 1   
    26    16    20 1   
    27    16    21 1   
    28    16    28 1   
    29    17    22 ar  
    30    17    29 1   
    31    18    22 ar  
    32    18    30 1   
    33    19    31 1   
    34    19    32 1   
    35    19    33 1   
    36    20    34 1   
    37    20    35 1   
    38    20    36 1   
    39    21    37 1   
    40    21    38 1   
    41    21    39 1   
    42    22    40 1   
@<TRIPOS>SUBSTRUCTURE
     1 EPK         1 TEMP              0 ****  ****    0 ROOT
