@<TRIPOS>MOLECULE
EPL
   34    34     1     0     0
SMALL
No Charge or Current Charge


@<TRIPOS>ATOM
      1 O1          -1.6610    -0.3040    -1.9850 o          1 EPL      -0.552000
      2 P           -1.7430     0.5870    -0.7940 p5         1 EPL       1.375200
      3 O2          -2.7040     1.8820    -0.9680 os         1 EPL      -0.609900
      4 C8          -3.2210     2.6670     0.1240 c3         1 EPL       0.218100
      5 C9          -2.0860     3.3000     0.9530 c3         1 EPL      -0.097600
      6 O4          -2.3300    -0.1070     0.5450 os         1 EPL      -0.609900
      7 C10         -3.1300    -1.2970     0.4950 c3         1 EPL       0.218100
      8 C11         -4.4700    -1.0050    -0.2120 c3         1 EPL      -0.097600
      9 O3          -0.3290     1.2030    -0.2990 os         1 EPL      -0.478500
     10 C4           0.9070     0.5990    -0.2540 ca         1 EPL       0.092100
     11 C2           1.0840    -0.7920    -0.4160 ca         1 EPL      -0.083500
     12 C3           2.3760    -1.3470    -0.3480 ca         1 EPL      -0.156500
     13 C1           3.4940    -0.5300    -0.1150 ca         1 EPL       0.138100
     14 O5           4.7340    -1.1340    -0.0600 os         1 EPL      -0.338100
     15 C7           5.9410    -0.3880     0.1750 c3         1 EPL       0.147900
     16 C5           3.3150     0.8600     0.0570 ca         1 EPL      -0.156500
     17 C6           2.0240     1.4150    -0.0100 ca         1 EPL      -0.083500
     18 H91         -1.5730     2.5510     1.5670 hc         1 EPL       0.047367
     19 H92         -1.3550     3.7960     0.3030 hc         1 EPL       0.047367
     20 H93         -2.5000     4.0530     1.6340 hc         1 EPL       0.047367
     21 H81         -3.8490     3.4740    -0.2760 h1         1 EPL       0.037950
     22 H82         -3.8550     2.0570     0.7810 h1         1 EPL       0.037950
     23 H101        -2.6030    -2.1030    -0.0330 h1         1 EPL       0.037950
     24 H102        -3.3370    -1.6480     1.5150 h1         1 EPL       0.037950
     25 H111        -5.1270    -1.8800    -0.1400 hc         1 EPL       0.047367
     26 H112        -4.9810    -0.1580     0.2610 hc         1 EPL       0.047367
     27 H113        -4.3280    -0.7840    -1.2760 hc         1 EPL       0.047367
     28 H6           1.8880     2.4860     0.1250 ha         1 EPL       0.129000
     29 H5           4.1580     1.5200     0.2430 ha         1 EPL       0.126500
     30 H71          6.0960     0.3610    -0.6120 h1         1 EPL       0.041700
     31 H72          5.9030     0.1220     1.1460 h1         1 EPL       0.041700
     32 H73          6.8080    -1.0600     0.1790 h1         1 EPL       0.041700
     33 H3           2.5110    -2.4180    -0.4740 ha         1 EPL       0.126500
     34 H2           0.2410    -1.4560    -0.5830 ha         1 EPL       0.129000
@<TRIPOS>BOND
     1     1     2 2   
     2     2     3 1   
     3     2     6 1   
     4     2     9 1   
     5     3     4 1   
     6     4     5 1   
     7     4    21 1   
     8     4    22 1   
     9     5    18 1   
    10     5    19 1   
    11     5    20 1   
    12     6     7 1   
    13     7     8 1   
    14     7    23 1   
    15     7    24 1   
    16     8    25 1   
    17     8    26 1   
    18     8    27 1   
    19     9    10 1   
    20    10    11 ar  
    21    10    17 ar  
    22    11    12 ar  
    23    11    34 1   
    24    12    13 ar  
    25    12    33 1   
    26    13    14 1   
    27    13    16 ar  
    28    14    15 1   
    29    15    30 1   
    30    15    31 1   
    31    15    32 1   
    32    16    17 ar  
    33    16    29 1   
    34    17    28 1   
@<TRIPOS>SUBSTRUCTURE
     1 EPL         1 TEMP              0 ****  ****    0 ROOT
