@<TRIPOS>MOLECULE
EPL
   34    34     1     0     0
SMALL
abcg2


@<TRIPOS>ATOM
      1 O1          -1.3540    -1.1420    -1.7550 o          1 EPL      -0.552000
      2 P           -1.5790    -0.3700    -0.5210 p5         1 EPL       1.375200
      3 O2          -1.5380     1.1900    -0.8270 os         1 EPL      -0.609900
      4 C8          -1.8880     2.1890     0.1520 c3         1 EPL       0.218100
      5 C9          -1.2900     3.5060    -0.2780 c3         1 EPL      -0.097600
      6 O4          -2.8950    -0.6600     0.3170 os         1 EPL      -0.609900
      7 C10         -4.1780    -0.6950    -0.3470 c3         1 EPL       0.218100
      8 C11         -5.2540    -0.6560     0.7080 c3         1 EPL      -0.097600
      9 O3          -0.5350    -0.6270     0.6780 os         1 EPL      -0.478500
     10 C4           0.8230    -0.5270     0.4170 ca         1 EPL       0.092100
     11 C2           1.5070    -1.6100    -0.1180 ca         1 EPL      -0.083500
     12 C3           2.8690    -1.5180    -0.3350 ca         1 EPL      -0.156500
     13 C1           3.5600    -0.3440    -0.0260 ca         1 EPL       0.138100
     14 O5           4.8820    -0.3480    -0.2760 os         1 EPL      -0.338100
     15 C7           5.6260     0.8200     0.0090 c3         1 EPL       0.147900
     16 C5           2.8640     0.7350     0.5130 ca         1 EPL      -0.156500
     17 C6           1.4940     0.6390     0.7290 ca         1 EPL      -0.083500
     18 H91         -0.2020     3.4580    -0.3170 hc         1 EPL       0.047367
     19 H92         -1.6620     3.8110    -1.2550 hc         1 EPL       0.047367
     20 H93         -1.5680     4.2760     0.4420 hc         1 EPL       0.047367
     21 H81         -2.9750     2.2600     0.2100 h1         1 EPL       0.037950
     22 H82         -1.5180     1.9050     1.1400 h1         1 EPL       0.037950
     23 H101        -4.2750     0.1590    -1.0220 h1         1 EPL       0.037950
     24 H102        -4.2430    -1.6050    -0.9440 h1         1 EPL       0.037950
     25 H111        -6.2290    -0.6900     0.2230 hc         1 EPL       0.047367
     26 H112        -5.1830    -1.5100     1.3810 hc         1 EPL       0.047367
     27 H113        -5.2030     0.2610     1.2950 hc         1 EPL       0.047367
     28 H6           0.9640     1.4800     1.1580 ha         1 EPL       0.129000
     29 H5           3.3630     1.6580     0.7740 ha         1 EPL       0.126500
     30 H71          5.2730     1.6800    -0.5660 h1         1 EPL       0.041700
     31 H72          5.5990     1.0720     1.0720 h1         1 EPL       0.041700
     32 H73          6.6540     0.6090    -0.2750 h1         1 EPL       0.041700
     33 H3           3.4060    -2.3610    -0.7500 ha         1 EPL       0.126500
     34 H2           0.9830    -2.5250    -0.3580 ha         1 EPL       0.129000
@<TRIPOS>BOND
     1     1     2 2   
     2     2     3 1   
     3     2     6 1   
     4     2     9 1   
     5     3     4 1   
     6     4     5 1   
     7     4    21 1   
     8     4    22 1   
     9     5    18 1   
    10     5    19 1   
    11     5    20 1   
    12     6     7 1   
    13     7     8 1   
    14     7    23 1   
    15     7    24 1   
    16     8    25 1   
    17     8    26 1   
    18     8    27 1   
    19     9    10 1   
    20    10    11 ar  
    21    10    17 ar  
    22    11    12 ar  
    23    11    34 1   
    24    12    13 ar  
    25    12    33 1   
    26    13    14 1   
    27    13    16 ar  
    28    14    15 1   
    29    15    30 1   
    30    15    31 1   
    31    15    32 1   
    32    16    17 ar  
    33    16    29 1   
    34    17    28 1   
@<TRIPOS>SUBSTRUCTURE
     1 EPL         1 TEMP              0 ****  ****    0 ROOT
