@<TRIPOS>MOLECULE
EPM
   66    65     1     0     0
SMALL
bcc


@<TRIPOS>ATOM
      1 C1          -6.9370    -2.3580    -0.0030 c          1 EPM       0.927600
      2 O1          -6.0150    -2.9800    -0.5540 o          1 EPM      -0.824300
      3 O2          -8.0360    -2.8090     0.3780 o          1 EPM      -0.824300
      4 C2          -6.7260    -0.8410     0.2640 c3         1 EPM      -0.043300
      5 C3          -7.8330    -0.0090    -0.3830 c3         1 EPM      -0.065400
      6 C4          -7.7480     1.4630    -0.0060 c3         1 EPM       0.033700
      7 S1          -9.1240     2.3740    -0.7630 ss         1 EPM      -0.377200
      8 C5          -8.7300     4.0450    -0.2030 c3         1 EPM      -0.006000
      9 N           -5.4360    -0.3690    -0.1740 ns         1 EPM      -0.526900
     10 C6          -4.3250    -0.4280     0.5740 c          1 EPM       0.669100
     11 O3          -4.3250    -0.7850     1.7470 o          1 EPM      -0.632100
     12 C7          -3.0660     0.0580    -0.1160 c3         1 EPM      -0.156400
     13 C8          -1.7890    -0.5710     0.4230 c3         1 EPM      -0.064400
     14 C9          -0.5430     0.0180    -0.2250 c3         1 EPM      -0.076400
     15 C10          0.7520    -0.5640     0.3260 c3         1 EPM      -0.074400
     16 C11          1.9980     0.0600    -0.2900 c3         1 EPM      -0.074400
     17 C12          3.2970    -0.4920     0.2820 c3         1 EPM      -0.074400
     18 C13          4.5400     0.1570    -0.3140 c3         1 EPM      -0.074400
     19 C14          5.8400    -0.3770     0.2720 c3         1 EPM      -0.074400
     20 C15          7.0810     0.2870    -0.3120 c3         1 EPM      -0.074400
     21 C16          8.3820    -0.2370     0.2810 c3         1 EPM      -0.074400
     22 C17          9.6210     0.4340    -0.2970 c3         1 EPM      -0.074400
     23 C18         10.9240    -0.0870     0.2970 c3         1 EPM      -0.074400
     24 C19         12.1620     0.5850    -0.2830 c3         1 EPM      -0.075400
     25 C20         13.4660     0.0630     0.3090 c3         1 EPM      -0.075400
     26 C21         14.6970     0.7390    -0.2780 c3         1 EPM      -0.088100
     27 H2          -6.7790    -0.6920     1.3460 h1         1 EPM       0.066700
     28 H31         -7.7900    -0.1160    -1.4720 hc         1 EPM       0.061700
     29 H32         -8.7920    -0.4170    -0.0640 hc         1 EPM       0.061700
     30 H41         -7.7980     1.5790     1.0800 h1         1 EPM       0.050700
     31 H42         -6.8070     1.9010    -0.3450 h1         1 EPM       0.050700
     32 H51         -9.4910     4.7170    -0.5970 h1         1 EPM       0.048367
     33 H52         -8.7390     4.1100     0.8840 h1         1 EPM       0.048367
     34 H53         -7.7570     4.3660    -0.5750 h1         1 EPM       0.048367
     35 HN          -5.3240    -0.1950    -1.1600 hn         1 EPM       0.293500
     36 H71         -3.0190     1.1440     0.0210 hc         1 EPM       0.040200
     37 H72         -3.1380    -0.1020    -1.1960 hc         1 EPM       0.040200
     38 H81         -1.8110    -1.6530     0.2610 hc         1 EPM       0.056200
     39 H82         -1.7370    -0.4230     1.5040 hc         1 EPM       0.056200
     40 H91         -0.5410     1.1050    -0.0780 hc         1 EPM       0.029200
     41 H92         -0.5820    -0.1380    -1.3090 hc         1 EPM       0.029200
     42 H101         0.7650    -1.6470     0.1630 hc         1 EPM       0.039200
     43 H102         0.7770    -0.4220     1.4120 hc         1 EPM       0.039200
     44 H111         1.9690     1.1450    -0.1390 hc         1 EPM       0.033700
     45 H112         1.9830    -0.0920    -1.3750 hc         1 EPM       0.033700
     46 H121         3.3370    -1.5750     0.1190 hc         1 EPM       0.037200
     47 H122         3.3020    -0.3520     1.3690 hc         1 EPM       0.037200
     48 H131         4.4900     1.2400    -0.1580 hc         1 EPM       0.035200
     49 H132         4.5420     0.0090    -1.4000 hc         1 EPM       0.035200
     50 H141         5.8960    -1.4590     0.1090 hc         1 EPM       0.037200
     51 H142         5.8320    -0.2370     1.3590 hc         1 EPM       0.037200
     52 H151         7.0200     1.3700    -0.1520 hc         1 EPM       0.036200
     53 H152         7.0930     0.1440    -1.3980 hc         1 EPM       0.036200
     54 H161         8.4460    -1.3190     0.1190 hc         1 EPM       0.036700
     55 H162         8.3680    -0.0960     1.3680 hc         1 EPM       0.036700
     56 H171         9.5560     1.5160    -0.1360 hc         1 EPM       0.036200
     57 H172         9.6360     0.2930    -1.3840 hc         1 EPM       0.036200
     58 H181        10.9890    -1.1690     0.1350 hc         1 EPM       0.036700
     59 H182        10.9090     0.0540     1.3830 hc         1 EPM       0.036700
     60 H191        12.0980     1.6670    -0.1200 hc         1 EPM       0.036700
     61 H192        12.1760     0.4450    -1.3690 hc         1 EPM       0.036700
     62 H201        13.5280    -1.0180     0.1470 hc         1 EPM       0.036200
     63 H202        13.4520     0.2050     1.3940 hc         1 EPM       0.036200
     64 H211        15.6160     0.3490     0.1600 hc         1 EPM       0.030033
     65 H212        14.7540     0.5860    -1.3570 hc         1 EPM       0.030033
     66 H213        14.6780     1.8160    -0.1010 hc         1 EPM       0.030033
@<TRIPOS>BOND
     1     1     2 1   
     2     1     3 1   
     3     1     4 1   
     4     4     5 1   
     5     4     9 1   
     6     4    27 1   
     7     5     6 1   
     8     5    28 1   
     9     5    29 1   
    10     6     7 1   
    11     6    30 1   
    12     6    31 1   
    13     7     8 1   
    14     8    32 1   
    15     8    33 1   
    16     8    34 1   
    17     9    10 1   
    18     9    35 1   
    19    10    11 2   
    20    10    12 1   
    21    12    13 1   
    22    12    36 1   
    23    12    37 1   
    24    13    14 1   
    25    13    38 1   
    26    13    39 1   
    27    14    15 1   
    28    14    40 1   
    29    14    41 1   
    30    15    16 1   
    31    15    42 1   
    32    15    43 1   
    33    16    17 1   
    34    16    44 1   
    35    16    45 1   
    36    17    18 1   
    37    17    46 1   
    38    17    47 1   
    39    18    19 1   
    40    18    48 1   
    41    18    49 1   
    42    19    20 1   
    43    19    50 1   
    44    19    51 1   
    45    20    21 1   
    46    20    52 1   
    47    20    53 1   
    48    21    22 1   
    49    21    54 1   
    50    21    55 1   
    51    22    23 1   
    52    22    56 1   
    53    22    57 1   
    54    23    24 1   
    55    23    58 1   
    56    23    59 1   
    57    24    25 1   
    58    24    60 1   
    59    24    61 1   
    60    25    26 1   
    61    25    62 1   
    62    25    63 1   
    63    26    64 1   
    64    26    65 1   
    65    26    66 1   
@<TRIPOS>SUBSTRUCTURE
     1 EPM         1 TEMP              0 ****  ****    0 ROOT
