@<TRIPOS>MOLECULE
EPM
   66    65     1     0     0
SMALL
No Charge or Current Charge


@<TRIPOS>ATOM
      1 C1          -6.5070    -2.7690    -0.3300 c          1 EPM       0.717000
      2 O1          -6.2570    -3.0520    -1.4940 o          1 EPM      -0.719000
      3 O2          -6.7080    -3.6100     0.5360 o          1 EPM      -0.719000
      4 C2          -6.4630    -1.2710     0.0980 c3         1 EPM      -0.043300
      5 C3          -7.6980    -0.5000    -0.4350 c3         1 EPM      -0.065400
      6 C4          -7.8130     0.9480     0.0830 c3         1 EPM       0.081600
      7 S1          -9.3680     1.7360    -0.5360 ss         1 EPM      -0.473000
      8 C5          -9.2000     3.4090     0.2330 c3         1 EPM       0.041900
      9 N           -5.1840    -0.6490    -0.3310 ns         1 EPM      -0.459900
     10 C6          -4.4630     0.2800     0.3880 c          1 EPM       0.602100
     11 O3          -4.8270     0.6990     1.4780 o          1 EPM      -0.632100
     12 C7          -3.1860     0.7780    -0.3010 c3         1 EPM      -0.156400
     13 C8          -1.9170     0.2000     0.3690 c3         1 EPM      -0.064400
     14 C9          -0.6100     0.6760    -0.3020 c3         1 EPM      -0.076400
     15 C10          0.6570     0.1010     0.3660 c3         1 EPM      -0.074400
     16 C11          1.9640     0.5780    -0.3050 c3         1 EPM      -0.074400
     17 C12          3.2320     0.0030     0.3630 c3         1 EPM      -0.074400
     18 C13          4.5380     0.4800    -0.3080 c3         1 EPM      -0.074400
     19 C14          5.8060    -0.0950     0.3600 c3         1 EPM      -0.074400
     20 C15          7.1130     0.3820    -0.3120 c3         1 EPM      -0.074400
     21 C16          8.3810    -0.1930     0.3560 c3         1 EPM      -0.074400
     22 C17          9.6870     0.2840    -0.3150 c3         1 EPM      -0.074400
     23 C18         10.9550    -0.2900     0.3530 c3         1 EPM      -0.074400
     24 C19         12.2620     0.1870    -0.3190 c3         1 EPM      -0.075400
     25 C20         13.5300    -0.3880     0.3490 c3         1 EPM      -0.075400
     26 C21         14.8330     0.0880    -0.3210 c3         1 EPM      -0.088100
     27 H2          -6.5000    -1.2600     1.1950 h1         1 EPM       0.066700
     28 H31         -7.6770    -0.4890    -1.5310 hc         1 EPM       0.061700
     29 H32         -8.6030    -1.0460    -0.1420 hc         1 EPM       0.061700
     30 H41         -7.8210     0.9510     1.1810 h1         1 EPM       0.050700
     31 H42         -6.9550     1.5390    -0.2610 h1         1 EPM       0.050700
     32 H51        -10.0630     4.0300    -0.0380 h1         1 EPM       0.048367
     33 H52         -9.1530     3.3150     1.3250 h1         1 EPM       0.048367
     34 H53         -8.2820     3.8940    -0.1260 h1         1 EPM       0.048367
     35 HN          -4.7920    -0.9390    -1.2190 hn         1 EPM       0.293500
     36 H71         -3.1490     1.8710    -0.2270 hc         1 EPM       0.040200
     37 H72         -3.1870     0.4780    -1.3560 hc         1 EPM       0.040200
     38 H81         -1.9610    -0.8960     0.3380 hc         1 EPM       0.056200
     39 H82         -1.9040     0.4880     1.4280 hc         1 EPM       0.056200
     40 H91         -0.5680     1.7720    -0.2700 hc         1 EPM       0.029200
     41 H92         -0.6220     0.3860    -1.3600 hc         1 EPM       0.029200
     42 H101         0.6160    -0.9950     0.3350 hc         1 EPM       0.039200
     43 H102         0.6700     0.3910     1.4250 hc         1 EPM       0.039200
     44 H111         2.0060     1.6740    -0.2730 hc         1 EPM       0.033700
     45 H112         1.9510     0.2880    -1.3630 hc         1 EPM       0.033700
     46 H121         3.1900    -1.0930     0.3320 hc         1 EPM       0.037200
     47 H122         3.2440     0.2930     1.4210 hc         1 EPM       0.037200
     48 H131         4.5800     1.5760    -0.2770 hc         1 EPM       0.035200
     49 H132         4.5260     0.1900    -1.3670 hc         1 EPM       0.035200
     50 H141         5.7650    -1.1910     0.3280 hc         1 EPM       0.037200
     51 H142         5.8190     0.1950     1.4180 hc         1 EPM       0.037200
     52 H151         7.1540     1.4780    -0.2800 hc         1 EPM       0.036200
     53 H152         7.1000     0.0920    -1.3700 hc         1 EPM       0.036200
     54 H161         8.3390    -1.2890     0.3250 hc         1 EPM       0.036700
     55 H162         8.3930     0.0970     1.4140 hc         1 EPM       0.036700
     56 H171         9.7290     1.3810    -0.2840 hc         1 EPM       0.036200
     57 H172         9.6750    -0.0060    -1.3740 hc         1 EPM       0.036200
     58 H181        10.9140    -1.3860     0.3210 hc         1 EPM       0.036700
     59 H182        10.9680    -0.0000     1.4110 hc         1 EPM       0.036700
     60 H191        12.3030     1.2830    -0.2880 hc         1 EPM       0.036700
     61 H192        12.2490    -0.1030    -1.3770 hc         1 EPM       0.036700
     62 H201        13.4930    -1.4840     0.3170 hc         1 EPM       0.036200
     63 H202        13.5470    -0.0980     1.4070 hc         1 EPM       0.036200
     64 H211        15.7040    -0.3450     0.1860 hc         1 EPM       0.030033
     65 H212        14.8630    -0.2170    -1.3740 hc         1 EPM       0.030033
     66 H213        14.9170     1.1810    -0.2740 hc         1 EPM       0.030033
@<TRIPOS>BOND
     1     1     2 1   
     2     1     3 1   
     3     1     4 1   
     4     4     5 1   
     5     4     9 1   
     6     4    27 1   
     7     5     6 1   
     8     5    28 1   
     9     5    29 1   
    10     6     7 1   
    11     6    30 1   
    12     6    31 1   
    13     7     8 1   
    14     8    32 1   
    15     8    33 1   
    16     8    34 1   
    17     9    10 1   
    18     9    35 1   
    19    10    11 2   
    20    10    12 1   
    21    12    13 1   
    22    12    36 1   
    23    12    37 1   
    24    13    14 1   
    25    13    38 1   
    26    13    39 1   
    27    14    15 1   
    28    14    40 1   
    29    14    41 1   
    30    15    16 1   
    31    15    42 1   
    32    15    43 1   
    33    16    17 1   
    34    16    44 1   
    35    16    45 1   
    36    17    18 1   
    37    17    46 1   
    38    17    47 1   
    39    18    19 1   
    40    18    48 1   
    41    18    49 1   
    42    19    20 1   
    43    19    50 1   
    44    19    51 1   
    45    20    21 1   
    46    20    52 1   
    47    20    53 1   
    48    21    22 1   
    49    21    54 1   
    50    21    55 1   
    51    22    23 1   
    52    22    56 1   
    53    22    57 1   
    54    23    24 1   
    55    23    58 1   
    56    23    59 1   
    57    24    25 1   
    58    24    60 1   
    59    24    61 1   
    60    25    26 1   
    61    25    62 1   
    62    25    63 1   
    63    26    64 1   
    64    26    65 1   
    65    26    66 1   
@<TRIPOS>SUBSTRUCTURE
     1 EPM         1 TEMP              0 ****  ****    0 ROOT
