@<TRIPOS>MOLECULE
EPN
   25    25     1     0     0
SMALL
abcg2


@<TRIPOS>ATOM
      1 C1           0.7280     0.0370     4.9090 c3         1 EPN       0.167600
      2 O17          0.0850     0.0420     6.1630 oh         1 EPN      -0.655000
      3 C2          -0.3360     0.0320     3.8260 c3         1 EPN      -0.089400
      4 C3           0.2970     0.0300     2.4510 c3         1 EPN       0.163600
      5 O18         -0.7540     0.0210     1.4900 os         1 EPN      -0.334100
      6 C4          -1.3480    -0.0170    -2.0500 ca         1 EPN      -0.002000
      7 C5          -0.0480    -0.0130    -2.5480 ca         1 EPN      -0.229200
      8 N11          0.1700    -0.0260    -3.9740 no         1 EPN       0.702200
      9 O14          1.3110    -0.0200    -4.3810 o          1 EPN      -0.406500
     10 O16         -0.7980    -0.0440    -4.7020 o          1 EPN      -0.406500
     11 C6           1.0410     0.0030    -1.6890 ca         1 EPN      -0.002000
     12 C7           0.8390     0.0150    -0.3220 ca         1 EPN      -0.195000
     13 C8          -0.4600     0.0110     0.1920 ca         1 EPN       0.200100
     14 C9          -1.5500    -0.0050    -0.6890 ca         1 EPN      -0.195000
     15 H11          1.3720     0.9170     4.7840 h1         1 EPN       0.017700
     16 H12          1.3720    -0.8450     4.7910 h1         1 EPN       0.017700
     17 H17          0.7600     0.0440     6.8460 ho         1 EPN       0.448000
     18 H21         -0.9700    -0.8510     3.9380 hc         1 EPN       0.072700
     19 H22         -0.9720     0.9150     3.9330 hc         1 EPN       0.072700
     20 H31          0.9250     0.9160     2.3130 h1         1 EPN       0.040200
     21 H32          0.9330    -0.8530     2.3200 h1         1 EPN       0.040200
     22 H4          -2.2020    -0.0290    -2.7120 ha         1 EPN       0.151000
     23 H6           2.0530     0.0060    -2.0700 ha         1 EPN       0.151000
     24 H7           1.7040     0.0280     0.3260 ha         1 EPN       0.135500
     25 H9          -2.5560    -0.0080    -0.2910 ha         1 EPN       0.135500
@<TRIPOS>BOND
     1     1     2 1   
     2     1     3 1   
     3     1    15 1   
     4     1    16 1   
     5     2    17 1   
     6     3     4 1   
     7     3    18 1   
     8     3    19 1   
     9     4     5 1   
    10     4    20 1   
    11     4    21 1   
    12     5    13 1   
    13     6     7 ar  
    14     6    14 ar  
    15     6    22 1   
    16     7     8 1   
    17     7    11 ar  
    18     8     9 1   
    19     8    10 1   
    20    11    12 ar  
    21    11    23 1   
    22    12    13 ar  
    23    12    24 1   
    24    13    14 ar  
    25    14    25 1   
@<TRIPOS>SUBSTRUCTURE
     1 EPN         1 TEMP              0 ****  ****    0 ROOT
