@<TRIPOS>MOLECULE
EPN
   25    25     1     0     0
SMALL
No Charge or Current Charge


@<TRIPOS>ATOM
      1 C1           0.7180     0.0430     5.0230 c3         1 EPN       0.167600
      2 O17          0.0410     0.0480     6.2840 oh         1 EPN      -0.655000
      3 C2          -0.3150     0.0300     3.8830 c3         1 EPN      -0.089400
      4 C3           0.3410     0.0240     2.4910 c3         1 EPN       0.163600
      5 O18         -0.7120     0.0120     1.5140 os         1 EPN      -0.334100
      6 C4          -1.3670    -0.0150    -2.1050 ca         1 EPN      -0.002000
      7 C5          -0.0600    -0.0120    -2.6440 ca         1 EPN      -0.229200
      8 N11          0.1490    -0.0210    -4.1260 no         1 EPN       0.702200
      9 O14          1.3110    -0.0180    -4.5530 o          1 EPN      -0.406500
     10 O16         -0.8490    -0.0300    -4.8580 o          1 EPN      -0.406500
     11 C6           1.0470    -0.0000    -1.7640 ca         1 EPN      -0.002000
     12 C7           0.8480     0.0080    -0.3720 ca         1 EPN      -0.195000
     13 C8          -0.4580     0.0050     0.1580 ca         1 EPN       0.200100
     14 C9          -1.5560    -0.0070    -0.7130 ca         1 EPN      -0.195000
     15 H11          1.3530     0.9340     4.9290 h1         1 EPN       0.017700
     16 H12          1.3610    -0.8430     4.9410 h1         1 EPN       0.017700
     17 H17          0.7360     0.0560     6.9810 ho         1 EPN       0.448000
     18 H21         -0.9530    -0.8560     3.9830 hc         1 EPN       0.072700
     19 H22         -0.9620     0.9110     3.9710 hc         1 EPN       0.072700
     20 H31          0.9670     0.9190     2.3770 h1         1 EPN       0.040200
     21 H32          0.9760    -0.8660     2.3880 h1         1 EPN       0.040200
     22 H4          -2.2410    -0.0240    -2.7560 ha         1 EPN       0.151000
     23 H6           2.0670     0.0020    -2.1490 ha         1 EPN       0.151000
     24 H7           1.7200     0.0160     0.2760 ha         1 EPN       0.135500
     25 H9          -2.5630    -0.0090    -0.3050 ha         1 EPN       0.135500
@<TRIPOS>BOND
     1     1     2 1   
     2     1     3 1   
     3     1    15 1   
     4     1    16 1   
     5     2    17 1   
     6     3     4 1   
     7     3    18 1   
     8     3    19 1   
     9     4     5 1   
    10     4    20 1   
    11     4    21 1   
    12     5    13 1   
    13     6     7 ar  
    14     6    14 ar  
    15     6    22 1   
    16     7     8 1   
    17     7    11 ar  
    18     8     9 1   
    19     8    10 1   
    20    11    12 ar  
    21    11    23 1   
    22    12    13 ar  
    23    12    24 1   
    24    13    14 ar  
    25    14    25 1   
@<TRIPOS>SUBSTRUCTURE
     1 EPN         1 TEMP              0 ****  ****    0 ROOT
