@<TRIPOS>MOLECULE
EPO
   11    11     1     0     0
SMALL
abcg2


@<TRIPOS>ATOM
      1 O1          -2.4140     0.4040    -0.8230 o          1 EPO      -0.758250
      2 C1          -1.9180    -0.1550     0.1700 c          1 EPO       0.728000
      3 C2          -0.4880     0.2070     0.5400 cx         1 EPO      -0.038700
      4 O2           0.0380     1.4240     0.0580 op         1 EPO      -0.467000
      5 C3           0.5540     0.2360    -0.5000 cx         1 EPO      -0.038700
      6 C4           1.9810    -0.1610    -0.1540 c          1 EPO       0.728000
      7 O3           2.4810     0.3300     0.8720 o          1 EPO      -0.758250
      8 O4          -2.4450    -1.0140     0.9050 o          1 EPO      -0.758250
      9 H2          -0.1710    -0.0550     1.5490 h1         1 EPO       0.059700
     10 HO2          0.2360     0.0410    -1.5240 h1         1 EPO       0.059700
     11 O5           2.5010    -0.9770    -0.9420 o          1 EPO      -0.758250
@<TRIPOS>BOND
     1     1     2 1   
     2     2     3 1   
     3     2     8 1   
     4     3     4 1   
     5     3     5 1   
     6     3     9 1   
     7     4     5 1   
     8     5     6 1   
     9     5    10 1   
    10     6     7 1   
    11     6    11 1   
@<TRIPOS>SUBSTRUCTURE
     1 EPO         1 TEMP              0 ****  ****    0 ROOT
