@<TRIPOS>MOLECULE
EPO
   11    11     1     0     0
SMALL
No Charge or Current Charge


@<TRIPOS>ATOM
      1 O1          -2.8900     0.5070     0.3480 o          1 EPO      -0.758250
      2 C1          -1.9290    -0.1700     0.0060 c          1 EPO       0.728000
      3 C2          -0.5400     0.2310     0.5130 cx         1 EPO      -0.038700
      4 O2           0.0370     1.4930     0.0610 op         1 EPO      -0.467000
      5 C3           0.6060     0.2600    -0.4720 cx         1 EPO      -0.038700
      6 C4           1.9920    -0.1820     0.0080 c          1 EPO       0.728000
      7 O3           2.9580     0.5090    -0.2890 o          1 EPO      -0.758250
      8 O4          -2.0330    -1.1830    -0.6730 o          1 EPO      -0.758250
      9 H2          -0.3300    -0.0220     1.5520 h1         1 EPO       0.059700
     10 HO2          0.3940     0.0750    -1.5240 h1         1 EPO       0.059700
     11 O5           2.0890    -1.2380     0.6200 o          1 EPO      -0.758250
@<TRIPOS>BOND
     1     1     2 1   
     2     2     3 1   
     3     2     8 1   
     4     3     4 1   
     5     3     5 1   
     6     3     9 1   
     7     4     5 1   
     8     5     6 1   
     9     5    10 1   
    10     6     7 1   
    11     6    11 1   
@<TRIPOS>SUBSTRUCTURE
     1 EPO         1 TEMP              0 ****  ****    0 ROOT
