@<TRIPOS>MOLECULE
EPQ
   28    27     1     0     0
SMALL
No Charge or Current Charge


@<TRIPOS>ATOM
      1 NQ          -6.6190    -3.4240    34.8250 n8         1 EPQ      -1.011200
      2 CQA         -6.3500    -1.9820    35.1610 c3         1 EPQ       0.083500
      3 CQB         -5.7990    -1.8540    36.6090 c3         1 EPQ      -0.052400
      4 CC          -5.4800    -1.2030    34.1070 c          1 EPQ       0.502100
      5 CMK         -3.9490    -1.3820    34.1700 c3         1 EPQ       0.068600
      6 OE1         -5.1990    -1.7000    39.4100 o          1 EPQ      -0.615100
      7 CD          -6.3110    -2.1530    39.1620 c          1 EPQ       0.602100
      8 CG          -6.8000    -2.3060    37.7070 c3         1 EPQ      -0.145400
      9 NE2         -7.1720    -2.5430    40.2150 n          1 EPQ      -0.418800
     10 CH1         -8.5210    -3.1030    39.9610 c3         1 EPQ       0.086300
     11 CH2         -6.7330    -2.4070    41.6240 c3         1 EPQ       0.086300
     12 OQ          -6.0030    -0.4950    33.2500 o          1 EPQ      -0.504100
     13 HNQ1        -7.0660    -3.4870    33.9000 hn         1 EPQ       0.412000
     14 HNQ2        -5.7270    -3.9180    34.6900 hn         1 EPQ       0.412000
     15 HQA         -7.3210    -1.4650    35.1520 h1         1 EPQ       0.080700
     16 HQB1        -4.8730    -2.4340    36.7060 hc         1 EPQ       0.066700
     17 HQB2        -5.5370    -0.8040    36.7940 hc         1 EPQ       0.066700
     18 F1          -3.5670    -2.6630    33.9170 f          1 EPQ      -0.261000
     19 HMK1        -3.4890    -0.7230    33.4240 h1         1 EPQ       0.075700
     20 HMK2        -3.5890    -1.0910    35.1640 h1         1 EPQ       0.075700
     21 HG1         -7.7580    -1.7820    37.6160 hc         1 EPQ       0.066700
     22 HG2         -7.1110    -3.3470    37.5680 hc         1 EPQ       0.066700
     23 HH11        -9.1330    -2.3720    39.4180 h1         1 EPQ       0.042200
     24 HH12        -8.4390    -4.0220    39.3670 h1         1 EPQ       0.042200
     25 HH13        -9.0270    -3.3450    40.9040 h1         1 EPQ       0.042200
     26 HH21        -6.4960    -1.3560    41.8360 h1         1 EPQ       0.042200
     27 HH22        -7.5200    -2.7350    42.3150 h1         1 EPQ       0.042200
     28 HH23        -5.8380    -3.0180    41.7920 h1         1 EPQ       0.042200
@<TRIPOS>BOND
     1     1     2 1   
     2     1    13 1   
     3     1    14 1   
     4     2     3 1   
     5     2     4 1   
     6     2    15 1   
     7     3     8 1   
     8     3    16 1   
     9     3    17 1   
    10     4     5 1   
    11     4    12 2   
    12     5    18 1   
    13     5    19 1   
    14     5    20 1   
    15     6     7 2   
    16     7     8 1   
    17     7     9 1   
    18     8    21 1   
    19     8    22 1   
    20     9    10 1   
    21     9    11 1   
    22    10    23 1   
    23    10    24 1   
    24    10    25 1   
    25    11    26 1   
    26    11    27 1   
    27    11    28 1   
@<TRIPOS>SUBSTRUCTURE
     1 EPQ         1 TEMP              0 ****  ****    0 ROOT
