@<TRIPOS>MOLECULE
EPQ
   28    27     1     0     0
SMALL
abcg2


@<TRIPOS>ATOM
      1 NQ          -6.4080    -3.3500    34.9140 n8         1 EPQ      -1.011200
      2 CQA         -6.3070    -1.9330    35.2690 c3         1 EPQ       0.083500
      3 CQB         -5.8210    -1.7370    36.7110 c3         1 EPQ      -0.052400
      4 CC          -5.4460    -1.1420    34.2930 c          1 EPQ       0.502100
      5 CMK         -4.0230    -1.5690    33.9720 c3         1 EPQ       0.068600
      6 OE1         -5.3180    -1.5150    39.4200 o          1 EPQ      -0.615100
      7 CD          -6.3860    -2.0790    39.1590 c          1 EPQ       0.602100
      8 CG          -6.8270    -2.2810    37.7160 c3         1 EPQ      -0.145400
      9 NE2         -7.2100    -2.5340    40.1330 n          1 EPQ      -0.418800
     10 CH1         -8.4700    -3.2260    39.9110 c3         1 EPQ       0.086300
     11 CH2         -6.8560    -2.3660    41.5340 c3         1 EPQ       0.086300
     12 OQ          -5.8670    -0.1650    33.7060 o          1 EPQ      -0.504100
     13 HNQ1        -6.7680    -3.4620    33.9730 hn         1 EPQ       0.412000
     14 HNQ2        -5.5000    -3.7990    34.9500 hn         1 EPQ       0.412000
     15 HQA         -7.3050    -1.4960    35.1790 h1         1 EPQ       0.080700
     16 HQB1        -4.8550    -2.2260    36.8440 hc         1 EPQ       0.066700
     17 HQB2        -5.6630    -0.6710    36.8860 hc         1 EPQ       0.066700
     18 F1          -3.5530    -2.6150    34.7710 f          1 EPQ      -0.261000
     19 HMK1        -3.9800    -1.8930    32.9300 h1         1 EPQ       0.075700
     20 HMK2        -3.3620    -0.7130    34.1140 h1         1 EPQ       0.075700
     21 HG1         -7.7960    -1.7950    37.5690 hc         1 EPQ       0.066700
     22 HG2         -6.9890    -3.3450    37.5350 hc         1 EPQ       0.066700
     23 HH11        -9.2900    -2.6590    40.3610 h1         1 EPQ       0.042200
     24 HH12        -8.6760    -3.3550    38.8560 h1         1 EPQ       0.042200
     25 HH13        -8.4380    -4.2120    40.3820 h1         1 EPQ       0.042200
     26 HH21        -5.9380    -1.7930    41.6100 h1         1 EPQ       0.042200
     27 HH22        -7.6590    -1.8420    42.0580 h1         1 EPQ       0.042200
     28 HH23        -6.7150    -3.3420    42.0070 h1         1 EPQ       0.042200
@<TRIPOS>BOND
     1     1     2 1   
     2     1    13 1   
     3     1    14 1   
     4     2     3 1   
     5     2     4 1   
     6     2    15 1   
     7     3     8 1   
     8     3    16 1   
     9     3    17 1   
    10     4     5 1   
    11     4    12 2   
    12     5    18 1   
    13     5    19 1   
    14     5    20 1   
    15     6     7 2   
    16     7     8 1   
    17     7     9 1   
    18     8    21 1   
    19     8    22 1   
    20     9    10 1   
    21     9    11 1   
    22    10    23 1   
    23    10    24 1   
    24    10    25 1   
    25    11    26 1   
    26    11    27 1   
    27    11    28 1   
@<TRIPOS>SUBSTRUCTURE
     1 EPQ         1 TEMP              0 ****  ****    0 ROOT
