@<TRIPOS>MOLECULE
EPT
   34    34     1     0     0
SMALL
abcg2


@<TRIPOS>ATOM
      1 C1           0.0500    -0.7300    -1.7960 ca         1 EPT      -0.114300
      2 C2           1.2450    -0.4240    -2.4460 ca         1 EPT      -0.068500
      3 C3           1.2650     0.0980    -3.7300 ca         1 EPT      -0.174000
      4 C4           0.0680     0.3300    -4.4030 ca         1 EPT       0.135100
      5 C5          -1.1360     0.0320    -3.7720 ca         1 EPT      -0.174000
      6 C6          -1.1340    -0.4890    -2.4860 ca         1 EPT      -0.068500
      7 C7           0.0410    -1.2560    -0.3880 c3         1 EPT      -0.024100
      8 C8           0.0240    -0.1460     0.6630 c3         1 EPT      -0.073400
      9 C9           0.0060    -0.6890     2.0860 c3         1 EPT      -0.075400
     10 C10         -0.0120     0.3990     3.1510 c3         1 EPT      -0.074400
     11 C11         -0.0330    -0.1560     4.5690 c3         1 EPT      -0.075400
     12 C12         -0.0500     0.9230     5.6440 c3         1 EPT      -0.074400
     13 C13         -0.0740     0.3520     7.0560 c3         1 EPT      -0.088100
     14 O4           0.1320     0.8360    -5.6540 oh         1 EPT      -0.535100
     15 H2           2.1880    -0.6020    -1.9410 ha         1 EPT       0.111500
     16 H3           2.2070     0.3220    -4.2140 ha         1 EPT       0.119000
     17 H5          -2.0780     0.2010    -4.2820 ha         1 EPT       0.119000
     18 H6          -2.0830    -0.7180    -2.0150 ha         1 EPT       0.111500
     19 H71          0.9190    -1.8890    -0.2260 hc         1 EPT       0.044200
     20 H72         -0.8310    -1.9000    -0.2420 hc         1 EPT       0.044200
     21 H81         -0.8520     0.4920     0.5020 hc         1 EPT       0.041700
     22 H82          0.8990     0.4990     0.5250 hc         1 EPT       0.041700
     23 H91          0.8800    -1.3330     2.2370 hc         1 EPT       0.036700
     24 H92         -0.8690    -1.3370     2.2130 hc         1 EPT       0.036700
     25 H101        -0.8860     1.0430     3.0010 hc         1 EPT       0.037700
     26 H102         0.8630     1.0460     3.0270 hc         1 EPT       0.037700
     27 H111         0.8400    -0.8020     4.7170 hc         1 EPT       0.036700
     28 H112        -0.9080    -0.8040     4.6920 hc         1 EPT       0.036700
     29 H121        -0.9210     1.5680     5.4970 hc         1 EPT       0.036700
     30 H122         0.8260     1.5680     5.5240 hc         1 EPT       0.036700
     31 H131        -0.0860     1.1420     7.8080 hc         1 EPT       0.031367
     32 H132        -0.9570    -0.2690     7.2140 hc         1 EPT       0.031367
     33 H133         0.8030    -0.2710     7.2440 hc         1 EPT       0.031367
     34 HO4         -0.7550     0.9640    -6.0080 ho         1 EPT       0.463000
@<TRIPOS>BOND
     1     1     2 ar  
     2     1     6 ar  
     3     1     7 1   
     4     2     3 ar  
     5     2    15 1   
     6     3     4 ar  
     7     3    16 1   
     8     4     5 ar  
     9     4    14 1   
    10     5     6 ar  
    11     5    17 1   
    12     6    18 1   
    13     7     8 1   
    14     7    19 1   
    15     7    20 1   
    16     8     9 1   
    17     8    21 1   
    18     8    22 1   
    19     9    10 1   
    20     9    23 1   
    21     9    24 1   
    22    10    11 1   
    23    10    25 1   
    24    10    26 1   
    25    11    12 1   
    26    11    27 1   
    27    11    28 1   
    28    12    13 1   
    29    12    29 1   
    30    12    30 1   
    31    13    31 1   
    32    13    32 1   
    33    13    33 1   
    34    14    34 1   
@<TRIPOS>SUBSTRUCTURE
     1 EPT         1 TEMP              0 ****  ****    0 ROOT
