@<TRIPOS>MOLECULE
EPT
   34    34     1     0     0
SMALL
No Charge or Current Charge


@<TRIPOS>ATOM
      1 C1           0.0620    -0.7180    -1.8350 ca         1 EPT      -0.114300
      2 C2           1.2840    -0.4350    -2.4750 ca         1 EPT      -0.068500
      3 C3           1.2930     0.0970    -3.7770 ca         1 EPT      -0.174000
      4 C4           0.0850     0.3490    -4.4420 ca         1 EPT       0.135100
      5 C5          -1.1370     0.0710    -3.8090 ca         1 EPT      -0.174000
      6 C6          -1.1490    -0.4610    -2.5070 ca         1 EPT      -0.068500
      7 C7           0.0490    -1.2900    -0.4230 c3         1 EPT      -0.024100
      8 C8           0.0210    -0.1810     0.6510 c3         1 EPT      -0.073400
      9 C9           0.0080    -0.7330     2.0930 c3         1 EPT      -0.075400
     10 C10         -0.0200     0.3790     3.1650 c3         1 EPT      -0.074400
     11 C11         -0.0330    -0.1720     4.6080 c3         1 EPT      -0.075400
     12 C12         -0.0610     0.9400     5.6790 c3         1 EPT      -0.074400
     13 C13         -0.0750     0.3900     7.1190 c3         1 EPT      -0.088100
     14 O4           0.1050     0.8650    -5.7030 oh         1 EPT      -0.535100
     15 H2           2.2260    -0.6250    -1.9640 ha         1 EPT       0.111500
     16 H3           2.2390     0.3130    -4.2670 ha         1 EPT       0.119000
     17 H5          -2.0790     0.2650    -4.3170 ha         1 EPT       0.119000
     18 H6          -2.0990    -0.6720    -2.0210 ha         1 EPT       0.111500
     19 H71          0.9320    -1.9220    -0.2650 hc         1 EPT       0.044200
     20 H72         -0.8220    -1.9430    -0.2890 hc         1 EPT       0.044200
     21 H81         -0.8660     0.4450     0.4950 hc         1 EPT       0.041700
     22 H82          0.8970     0.4670     0.5190 hc         1 EPT       0.041700
     23 H91          0.8960    -1.3590     2.2480 hc         1 EPT       0.036700
     24 H92         -0.8680    -1.3800     2.2230 hc         1 EPT       0.036700
     25 H101        -0.9080     1.0060     3.0110 hc         1 EPT       0.037700
     26 H102         0.8560     1.0270     3.0350 hc         1 EPT       0.037700
     27 H111         0.8540    -0.7980     4.7620 hc         1 EPT       0.036700
     28 H112        -0.9090    -0.8200     4.7380 hc         1 EPT       0.036700
     29 H121        -0.9490     1.5670     5.5290 hc         1 EPT       0.036700
     30 H122         0.8140     1.5880     5.5540 hc         1 EPT       0.036700
     31 H131        -0.0950     1.2140     7.8420 hc         1 EPT       0.031367
     32 H132        -0.9590    -0.2360     7.2870 hc         1 EPT       0.031367
     33 H133         0.8200    -0.2140     7.3120 hc         1 EPT       0.031367
     34 HO4         -0.8220     0.9740    -6.0080 ho         1 EPT       0.463000
@<TRIPOS>BOND
     1     1     2 ar  
     2     1     6 ar  
     3     1     7 1   
     4     2     3 ar  
     5     2    15 1   
     6     3     4 ar  
     7     3    16 1   
     8     4     5 ar  
     9     4    14 1   
    10     5     6 ar  
    11     5    17 1   
    12     6    18 1   
    13     7     8 1   
    14     7    19 1   
    15     7    20 1   
    16     8     9 1   
    17     8    21 1   
    18     8    22 1   
    19     9    10 1   
    20     9    23 1   
    21     9    24 1   
    22    10    11 1   
    23    10    25 1   
    24    10    26 1   
    25    11    12 1   
    26    11    27 1   
    27    11    28 1   
    28    12    13 1   
    29    12    29 1   
    30    12    30 1   
    31    13    31 1   
    32    13    32 1   
    33    13    33 1   
    34    14    34 1   
@<TRIPOS>SUBSTRUCTURE
     1 EPT         1 TEMP              0 ****  ****    0 ROOT
