@<TRIPOS>MOLECULE
EPU
   70    72     1     0     0
SMALL
No Charge or Current Charge


@<TRIPOS>ATOM
      1 N1U         15.9040    22.1270    13.8410 n          1 EPU      -0.311000
      2 C2U         17.2420    21.7340    13.6550 c          1 EPU       0.620000
      3 N3U         17.4620    20.3960    13.5330 ns         1 EPU      -0.478500
      4 C4U         16.5520    19.3900    13.5740 c          1 EPU       0.584200
      5 C5U         15.1850    19.8490    13.7800 cc         1 EPU      -0.373200
      6 C6U         14.8760    21.1850    13.9120 cd         1 EPU       0.029600
      7 O2U         18.1760    22.5180    13.6080 o          1 EPU      -0.611000
      8 O4U         16.8700    18.2210    13.4510 o          1 EPU      -0.581000
      9 C1D         15.6050    23.5770    13.9560 c5         1 EPU       0.345700
     10 C2D         14.9940    24.0540    12.5970 c5         1 EPU       0.126300
     11 O2D         15.9560    24.3510    11.5700 oh         1 EPU      -0.702000
     12 C3D         14.3310    25.3690    13.0940 c5         1 EPU       0.102300
     13 C4D         13.7360    24.9070    14.4760 c5         1 EPU       0.135300
     14 O4D         14.5760    23.8140    14.9390 os         1 EPU      -0.446000
     15 O3D         15.3290    26.4050    13.2310 oh         1 EPU      -0.722000
     16 C5D         12.2480    24.4490    14.4260 c3         1 EPU       0.220600
     17 O5D         12.1010    23.3550    13.5070 os         1 EPU      -0.609400
     18 PA          10.6430    23.0080    12.9190 p5         1 EPU       1.465800
     19 O1A          9.9440    24.2590    12.5010 o          1 EPU      -0.843500
     20 O2A         10.7190    22.0600    11.7700 o          1 EPU      -0.843500
     21 O3A          9.9740    22.4260    14.2210 os         1 EPU      -0.721800
     22 PB          10.2530    20.9150    14.5610 p5         1 EPU       1.491800
     23 O1B          9.9860    20.6760    16.0080 o          1 EPU      -0.859500
     24 O2B         11.6210    20.4360    14.2130 o          1 EPU      -0.859500
     25 C1           7.7750    20.2660    14.0970 c6         1 EPU       0.433300
     26 C2           7.2750    18.8670    14.6030 c6         1 EPU       0.075700
     27 C3           7.3600    17.8560    13.4250 c6         1 EPU       0.150300
     28 C4           6.5070    18.3790    12.2200 c6         1 EPU       0.133300
     29 C5           6.9710    19.8180    11.8300 c6         1 EPU       0.137300
     30 C6           6.0760    20.4690    10.7200 c3         1 EPU       0.146600
     31 C7           7.7420    18.7610    17.0900 c          1 EPU       0.615100
     32 C8           8.6310    18.1100    18.1460 c3         1 EPU      -0.176100
     33 N2           7.9970    18.3730    15.7970 ns         1 EPU      -0.471900
     34 O1           9.1280    20.2360    13.6400 os         1 EPU      -0.618400
     35 O3           6.9020    16.5470    13.8640 os         1 EPU      -0.326100
     36 O4           6.5710    17.4750    11.0990 oh         1 EPU      -0.704000
     37 O5           6.9470    20.6910    12.9940 os         1 EPU      -0.465000
     38 O6           4.7210    20.7390    11.1420 oh         1 EPU      -0.724000
     39 O7           6.8530    19.5530    17.3710 o          1 EPU      -0.626100
     40 C1E          6.4400    14.1210    13.6610 c          1 EPU       0.722200
     41 O1E          6.6560    13.0430    13.1180 o          1 EPU      -0.723500
     42 O2E          5.6130    14.2400    14.5580 o          1 EPU      -0.723500
     43 C2E          7.2290    15.3650    13.1950 ce         1 EPU       0.020900
     44 C3E          8.1560    15.3060    12.1970 c2         1 EPU      -0.483000
     45 HN3U        18.4210    20.1190    13.3970 hn         1 EPU       0.307500
     46 H5U         14.4270    19.0750    13.8240 ha         1 EPU       0.277000
     47 H6U         13.8740    21.5860    14.0730 h4         1 EPU       0.296000
     48 H1D         16.5170    24.1310    14.2150 h2         1 EPU       0.087700
     49 H2D         14.2410    23.3400    12.2350 h1         1 EPU       0.113700
     50 HO2U        16.2180    25.2840    11.7750 ho         1 EPU       0.500000
     51 H3D         13.5340    25.6930    12.4080 h1         1 EPU       0.072700
     52 H4D         13.8010    25.7200    15.2110 h1         1 EPU       0.030700
     53 HO3U        14.8710    27.2180    13.5520 ho         1 EPU       0.485000
     54 H5'1        11.9350    24.1470    15.4340 h1         1 EPU       0.036200
     55 H5'2        11.6330    25.3080    14.1270 h1         1 EPU       0.036200
     56 H1           7.6620    20.9990    14.9130 h2         1 EPU       0.082700
     57 H2           6.2160    18.9750    14.8780 h1         1 EPU       0.081700
     58 H3           8.4170    17.7920    13.1360 h1         1 EPU       0.082700
     59 H4           5.4640    18.4470    12.5640 h1         1 EPU       0.045700
     60 H5           7.9980    19.7680    11.4390 h1         1 EPU       0.108700
     61 H61          6.5630    21.4040    10.4120 h1         1 EPU       0.040700
     62 H62          6.0770    19.8090     9.8420 h1         1 EPU       0.040700
     63 H81          8.3900    18.4390    19.1630 hc         1 EPU       0.043700
     64 H82          8.5620    17.0210    18.0480 hc         1 EPU       0.043700
     65 H83          9.6810    18.2990    17.8970 hc         1 EPU       0.043700
     66 HN2          8.7510    17.7100    15.6690 hn         1 EPU       0.328500
     67 HO4          6.8720    16.6110    11.4750 ho         1 EPU       0.477000
     68 HO6          4.2740    21.1990    10.3950 ho         1 EPU       0.467000
     69 HE31         8.7570    16.1510    11.8620 ha         1 EPU       0.157000
     70 HE32         8.3760    14.3610    11.6980 ha         1 EPU       0.157000
@<TRIPOS>BOND
     1     1     2 1   
     2     1     6 1   
     3     1     9 1   
     4     2     3 1   
     5     2     7 2   
     6     3     4 1   
     7     3    45 1   
     8     4     5 1   
     9     4     8 2   
    10     5     6 2   
    11     5    46 1   
    12     6    47 1   
    13     9    10 1   
    14     9    14 1   
    15     9    48 1   
    16    10    11 1   
    17    10    12 1   
    18    10    49 1   
    19    11    50 1   
    20    12    13 1   
    21    12    15 1   
    22    12    51 1   
    23    13    14 1   
    24    13    16 1   
    25    13    52 1   
    26    15    53 1   
    27    16    17 1   
    28    16    54 1   
    29    16    55 1   
    30    17    18 1   
    31    18    19 1   
    32    18    20 1   
    33    18    21 1   
    34    21    22 1   
    35    22    23 1   
    36    22    24 1   
    37    22    34 1   
    38    25    26 1   
    39    25    34 1   
    40    25    37 1   
    41    25    56 1   
    42    26    27 1   
    43    26    33 1   
    44    26    57 1   
    45    27    28 1   
    46    27    35 1   
    47    27    58 1   
    48    28    29 1   
    49    28    36 1   
    50    28    59 1   
    51    29    30 1   
    52    29    37 1   
    53    29    60 1   
    54    30    38 1   
    55    30    61 1   
    56    30    62 1   
    57    31    32 1   
    58    31    33 1   
    59    31    39 2   
    60    32    63 1   
    61    32    64 1   
    62    32    65 1   
    63    33    66 1   
    64    35    43 1   
    65    36    67 1   
    66    38    68 1   
    67    40    41 1   
    68    40    42 1   
    69    40    43 1   
    70    43    44 2   
    71    44    69 1   
    72    44    70 1   
@<TRIPOS>SUBSTRUCTURE
     1 EPU         1 TEMP              0 ****  ****    0 ROOT
