@<TRIPOS>MOLECULE
EPU
   70    72     1     0     0
SMALL
abcg2


@<TRIPOS>ATOM
      1 N1U         15.7110    22.3450    14.0170 n          1 EPU      -0.311000
      2 C2U         17.0220    21.9590    14.2190 c          1 EPU       0.620000
      3 N3U         17.1690    20.6850    14.7030 ns         1 EPU      -0.478500
      4 C4U         16.1800    19.7600    15.0050 c          1 EPU       0.584200
      5 C5U         14.8480    20.2540    14.7680 cc         1 EPU      -0.373200
      6 C6U         14.6740    21.4970    14.2920 cd         1 EPU       0.029600
      7 O2U         17.9770    22.6710    13.9900 o          1 EPU      -0.611000
      8 O4U         16.4760    18.6560    15.4240 o          1 EPU      -0.581000
      9 C1D         15.4350    23.6750    13.4930 c5         1 EPU       0.345700
     10 C2D         14.9320    23.6790    12.0520 c5         1 EPU       0.126300
     11 O2D         16.0120    23.5280    11.1840 oh         1 EPU      -0.702000
     12 C3D         14.1910    25.0170    12.0060 c5         1 EPU       0.102300
     13 C4D         13.5850    25.0810    13.4190 c5         1 EPU       0.135300
     14 O4D         14.4170    24.2610    14.2490 os         1 EPU      -0.446000
     15 O3D         15.1400    26.0300    11.7880 oh         1 EPU      -0.722000
     16 C5D         12.1390    24.6490    13.5040 c3         1 EPU       0.220600
     17 O5D         11.9730    23.3940    12.8870 os         1 EPU      -0.609400
     18 PA          10.4680    22.7940    12.5900 p5         1 EPU       1.465800
     19 O1A          9.5870    23.8830    12.0660 o          1 EPU      -0.843500
     20 O2A         10.6980    21.5270    11.8360 o          1 EPU      -0.843500
     21 O3A          9.9310    22.5090    14.1210 os         1 EPU      -0.721800
     22 PB          10.2550    21.2870    15.1650 p5         1 EPU       1.491800
     23 O1B          9.7490    21.7490    16.4920 o          1 EPU      -0.859500
     24 O2B         11.6410    20.7660    14.9750 o          1 EPU      -0.859500
     25 C1           7.8960    20.0680    14.8510 c6         1 EPU       0.433300
     26 C2           7.4150    18.6130    14.8280 c6         1 EPU       0.075700
     27 C3           7.4650    18.0400    13.4090 c6         1 EPU       0.150300
     28 C4           6.7050    18.9600    12.4640 c6         1 EPU       0.133300
     29 C5           7.2780    20.3790    12.5810 c6         1 EPU       0.137300
     30 C6           6.5800    21.3960    11.7070 c3         1 EPU       0.146600
     31 C7           7.6220    17.0160    16.6930 c          1 EPU       0.615100
     32 C8           8.6110    16.2090    17.4990 c3         1 EPU      -0.176100
     33 N2           8.1700    17.8070    15.7480 ns         1 EPU      -0.471900
     34 O1           9.2710    20.0770    14.6000 os         1 EPU      -0.618400
     35 O3           6.8550    16.7680    13.4590 os         1 EPU      -0.326100
     36 O4           6.8340    18.4640    11.1550 oh         1 EPU      -0.704000
     37 O5           7.1860    20.8280    13.9260 os         1 EPU      -0.465000
     38 O6           5.2020    21.4180    11.9970 oh         1 EPU      -0.724000
     39 O7           6.4200    16.9460    16.9010 o          1 EPU      -0.626100
     40 C1E          6.7440    14.3780    13.3930 c          1 EPU       0.722200
     41 O1E          7.2530    13.3110    13.0070 o          1 EPU      -0.723500
     42 O2E          5.7320    14.5280    14.0980 o          1 EPU      -0.723500
     43 C2E          7.4480    15.6700    12.9390 ce         1 EPU       0.020900
     44 C3E          8.5060    15.6520    12.1270 c2         1 EPU      -0.483000
     45 HN3U        18.1270    20.3920    14.8500 hn         1 EPU       0.307500
     46 H5U         13.9910    19.6340    14.9790 ha         1 EPU       0.277000
     47 H6U         13.6790    21.8800    14.1160 h4         1 EPU       0.296000
     48 H1D         16.3670    24.2400    13.5650 h2         1 EPU       0.087700
     49 H2D         14.1920    22.8800    11.9250 h1         1 EPU       0.113700
     50 HO2U        15.6770    23.3200    10.3070 ho         1 EPU       0.500000
     51 H3D         13.4090    25.0300    11.2370 h1         1 EPU       0.072700
     52 H4D         13.6300    26.1110    13.7940 h1         1 EPU       0.030700
     53 HO3U        14.6820    26.8770    11.7810 ho         1 EPU       0.485000
     54 H5'1        11.8310    24.6180    14.5560 h1         1 EPU       0.036200
     55 H5'2        11.5340    25.4190    13.0130 h1         1 EPU       0.036200
     56 H1           7.6770    20.5050    15.8290 h2         1 EPU       0.082700
     57 H2           6.3760    18.6130    15.1650 h1         1 EPU       0.081700
     58 H3           8.5100    17.9670    13.0890 h1         1 EPU       0.082700
     59 H4           5.6540    18.9720    12.7820 h1         1 EPU       0.045700
     60 H5           8.3250    20.3620    12.2540 h1         1 EPU       0.108700
     61 H61          7.0530    22.3720    11.8760 h1         1 EPU       0.040700
     62 H62          6.7760    21.1340    10.6600 h1         1 EPU       0.040700
     63 H81          8.4510    16.3920    18.5610 hc         1 EPU       0.043700
     64 H82          8.4330    15.1480    17.3230 hc         1 EPU       0.043700
     65 H83          9.6510    16.4250    17.2620 hc         1 EPU       0.043700
     66 HN2          9.1720    17.7990    15.6360 hn         1 EPU       0.328500
     67 HO4          6.0890    18.7750    10.6320 ho         1 EPU       0.477000
     68 HO6          4.7730    22.0150    11.3770 ho         1 EPU       0.467000
     69 HE31         9.0080    16.5340    11.7550 ha         1 EPU       0.157000
     70 HE32         8.8920    14.7000    11.8000 ha         1 EPU       0.157000
@<TRIPOS>BOND
     1     1     2 1   
     2     1     6 1   
     3     1     9 1   
     4     2     3 1   
     5     2     7 2   
     6     3     4 1   
     7     3    45 1   
     8     4     5 1   
     9     4     8 2   
    10     5     6 2   
    11     5    46 1   
    12     6    47 1   
    13     9    10 1   
    14     9    14 1   
    15     9    48 1   
    16    10    11 1   
    17    10    12 1   
    18    10    49 1   
    19    11    50 1   
    20    12    13 1   
    21    12    15 1   
    22    12    51 1   
    23    13    14 1   
    24    13    16 1   
    25    13    52 1   
    26    15    53 1   
    27    16    17 1   
    28    16    54 1   
    29    16    55 1   
    30    17    18 1   
    31    18    19 1   
    32    18    20 1   
    33    18    21 1   
    34    21    22 1   
    35    22    23 1   
    36    22    24 1   
    37    22    34 1   
    38    25    26 1   
    39    25    34 1   
    40    25    37 1   
    41    25    56 1   
    42    26    27 1   
    43    26    33 1   
    44    26    57 1   
    45    27    28 1   
    46    27    35 1   
    47    27    58 1   
    48    28    29 1   
    49    28    36 1   
    50    28    59 1   
    51    29    30 1   
    52    29    37 1   
    53    29    60 1   
    54    30    38 1   
    55    30    61 1   
    56    30    62 1   
    57    31    32 1   
    58    31    33 1   
    59    31    39 2   
    60    32    63 1   
    61    32    64 1   
    62    32    65 1   
    63    33    66 1   
    64    35    43 1   
    65    36    67 1   
    66    38    68 1   
    67    40    41 1   
    68    40    42 1   
    69    40    43 1   
    70    43    44 2   
    71    44    69 1   
    72    44    70 1   
@<TRIPOS>SUBSTRUCTURE
     1 EPU         1 TEMP              0 ****  ****    0 ROOT
