@<TRIPOS>MOLECULE
EPV
   61    64     1     0     0
SMALL
No Charge or Current Charge


@<TRIPOS>ATOM
      1 C4          -0.1070     1.2960    -0.1600 ca         1 EPV      -0.059000
      2 C5          -1.2290     2.1250     0.0580 ca         1 EPV      -0.131600
      3 C6          -1.0370     3.5240     0.0800 ca         1 EPV      -0.097000
      4 C8           3.5920     3.0790    -0.9120 cc         1 EPV       0.447300
      5 C17          2.5540    -0.2940    -0.4200 cc         1 EPV       0.397400
      6 C20          0.4650    -3.4460    -0.3030 ca         1 EPV       0.171100
      7 C21         -0.0380    -3.3910     1.0160 ca         1 EPV      -0.170000
      8 C22          0.3210    -2.3280     1.8640 ca         1 EPV      -0.069000
      9 C26         -6.0430     3.0870     0.5030 c3         1 EPV      -0.078700
     10 C28         -5.9870     3.7230    -0.9080 c3         1 EPV      -0.087100
     11 C1           0.2380     4.0690    -0.1390 ca         1 EPV      -0.068000
     12 C19          1.3160    -2.4200    -0.7470 ca         1 EPV      -0.106000
     13 C18          1.6570    -1.3340     0.0850 ca         1 EPV      -0.074900
     14 C2           1.3580     3.2510    -0.3620 ca         1 EPV       0.254000
     15 C3           1.1890     1.8400    -0.3270 ca         1 EPV      -0.051000
     16 C23          1.1690    -1.3070     1.4090 ca         1 EPV       0.094000
     17 C9           3.5040     1.6470    -0.8680 cc         1 EPV      -0.176000
     18 C11         -2.5940     1.4900     0.2550 c          1 EPV       0.615700
     19 C12          4.9210     3.6820    -1.2710 c3         1 EPV      -0.148400
     20 C27         -7.4780     2.6330     0.8500 c3         1 EPV      -0.087100
     21 C31         -0.0910    -6.5470     0.0330 c3         1 EPV      -0.108433
     22 C32         -0.5760    -6.3150    -2.4320 c3         1 EPV      -0.108433
     23 C33         -2.1330    -5.1580    -0.8180 c3         1 EPV      -0.108433
     24 C30         -0.6670    -5.6070    -1.0590 c3         1 EPV       0.204000
     25 N16          3.7990    -0.5160    -0.8260 nd         1 EPV      -0.348700
     26 N15          4.4000     0.7040    -1.0950 nd         1 EPV      -0.063000
     27 N7           2.5810     3.9110    -0.6400 nd         1 EPV      -0.666000
     28 N10          2.3360     1.0660    -0.5140 na         1 EPV       0.032200
     29 N13         -3.6500     2.3470     0.4730 ns         1 EPV      -0.497900
     30 O14         -2.7600     0.2780     0.2240 o          1 EPV      -0.599100
     31 Cl4          1.6280    -0.0280     2.5330 cl         1 EPV      -0.193000
     32 H1          -0.2680     0.2250    -0.2100 ha         1 EPV       0.157000
     33 H2          -1.8650     4.2090     0.2430 ha         1 EPV       0.122000
     34 H3          -0.6940    -4.1490     1.4180 ha         1 EPV       0.125000
     35 H4          -0.0560    -2.3000     2.8840 ha         1 EPV       0.130000
     36 H5          -5.7670     3.8650     1.2260 hc         1 EPV       0.042700
     37 H6          -4.9910     4.1300    -1.1210 hc         1 EPV       0.036867
     38 H7          -6.2280     2.9820    -1.6790 hc         1 EPV       0.036867
     39 H8          -6.7070     4.5470    -0.9890 hc         1 EPV       0.036867
     40 H9           0.3600     5.1490    -0.1500 ha         1 EPV       0.140000
     41 H10          1.7050    -2.4640    -1.7620 ha         1 EPV       0.143000
     42 H11          4.8800     4.7770    -1.2840 hc         1 EPV       0.068033
     43 H12          5.6880     3.3820    -0.5480 hc         1 EPV       0.068033
     44 H13          5.2400     3.3460    -2.2650 hc         1 EPV       0.068033
     45 H14         -7.5220     2.2320     1.8700 hc         1 EPV       0.036867
     46 H15         -8.1780     3.4750     0.7880 hc         1 EPV       0.036867
     47 H16         -7.8190     1.8520     0.1590 hc         1 EPV       0.036867
     48 H17         -0.5360    -7.5460    -0.0520 hc         1 EPV       0.048367
     49 H18          0.9950    -6.6540    -0.0820 hc         1 EPV       0.048367
     50 H19         -0.2950    -6.1980     1.0480 hc         1 EPV       0.048367
     51 H20         -0.9290    -5.6560    -3.2350 hc         1 EPV       0.048367
     52 H21          0.4590    -6.6010    -2.6560 hc         1 EPV       0.048367
     53 H22         -1.1900    -7.2240    -2.4460 hc         1 EPV       0.048367
     54 H23         -2.3100    -4.8140     0.2040 hc         1 EPV       0.048367
     55 H24         -2.4080    -4.3500    -1.5060 hc         1 EPV       0.048367
     56 H25         -2.8200    -5.9950    -0.9920 hc         1 EPV       0.048367
     57 H26         -5.1310     1.4930     1.6730 h1         1 EPV       0.056200
     58 H27         -5.2760     1.1320    -0.0620 h1         1 EPV       0.056200
     59 H28         -3.4430     3.3360     0.4930 hn         1 EPV       0.313500
     60 O29          0.1890    -4.4490    -1.2220 os         1 EPV      -0.366100
     61 C25         -5.0380     1.9210     0.6650 c3         1 EPV       0.098000
@<TRIPOS>BOND
     1     1     2 ar  
     2     1    15 ar  
     3     1    32 1   
     4     2     3 ar  
     5     2    18 1   
     6     3    11 ar  
     7     3    33 1   
     8     4    17 1   
     9     4    19 1   
    10     4    27 2   
    11     5    13 1   
    12     5    25 2   
    13     5    28 1   
    14     6     7 ar  
    15     6    12 ar  
    16     6    60 1   
    17     7     8 ar  
    18     7    34 1   
    19     8    16 ar  
    20     8    35 1   
    21     9    10 1   
    22     9    20 1   
    23     9    36 1   
    24     9    61 1   
    25    10    37 1   
    26    10    38 1   
    27    10    39 1   
    28    11    14 ar  
    29    11    40 1   
    30    12    13 ar  
    31    12    41 1   
    32    13    16 ar  
    33    14    15 ar  
    34    14    27 1   
    35    15    28 1   
    36    16    31 1   
    37    17    26 2   
    38    17    28 1   
    39    18    29 1   
    40    18    30 2   
    41    19    42 1   
    42    19    43 1   
    43    19    44 1   
    44    20    45 1   
    45    20    46 1   
    46    20    47 1   
    47    21    24 1   
    48    21    48 1   
    49    21    49 1   
    50    21    50 1   
    51    22    24 1   
    52    22    51 1   
    53    22    52 1   
    54    22    53 1   
    55    23    24 1   
    56    23    54 1   
    57    23    55 1   
    58    23    56 1   
    59    24    60 1   
    60    25    26 1   
    61    29    59 1   
    62    29    61 1   
    63    57    61 1   
    64    58    61 1   
@<TRIPOS>SUBSTRUCTURE
     1 EPV         1 TEMP              0 ****  ****    0 ROOT
