@<TRIPOS>MOLECULE
EPV
   61    64     1     0     0
SMALL
abcg2


@<TRIPOS>ATOM
      1 C4          -0.1440     1.2320    -0.2250 ca         1 EPV      -0.059000
      2 C5          -1.2590     2.0520    -0.2280 ca         1 EPV      -0.131600
      3 C6          -1.1160     3.4230    -0.4660 ca         1 EPV      -0.097000
      4 C8           3.5560     3.0290    -0.9840 cc         1 EPV       0.447300
      5 C17          2.6060    -0.2560    -0.1140 cc         1 EPV       0.397400
      6 C20          0.5590    -3.4090    -0.1250 ca         1 EPV       0.171100
      7 C21         -0.0090    -3.3560     1.1470 ca         1 EPV      -0.170000
      8 C22          0.2660    -2.2940     1.9970 ca         1 EPV      -0.069000
      9 C26         -5.8830     2.8760     0.6100 c3         1 EPV      -0.078700
     10 C28         -5.9170     3.2890    -0.8570 c3         1 EPV      -0.087100
     11 C1           0.1300     3.9580    -0.7030 ca         1 EPV      -0.068000
     12 C19          1.4070    -2.3690    -0.5180 ca         1 EPV      -0.106000
     13 C18          1.6850    -1.3070     0.3280 ca         1 EPV      -0.074900
     14 C2           1.2720     3.1530    -0.6860 ca         1 EPV       0.254000
     15 C3           1.1160     1.7810    -0.4160 ca         1 EPV      -0.051000
     16 C23          1.1110    -1.2790     1.5980 ca         1 EPV       0.094000
     17 C9           3.4920     1.6220    -0.6960 cc         1 EPV      -0.176000
     18 C11         -2.5920     1.4020    -0.0090 c          1 EPV       0.615700
     19 C12          4.8790     3.6330    -1.2950 c3         1 EPV      -0.148400
     20 C27         -7.2600     2.4300     1.0860 c3         1 EPV      -0.087100
     21 C31         -0.5600    -6.4110    -0.0490 c3         1 EPV      -0.108433
     22 C32         -0.5490    -5.9220    -2.4870 c3         1 EPV      -0.108433
     23 C33         -2.0380    -4.5890    -0.9980 c3         1 EPV      -0.108433
     24 C30         -0.6990    -5.3120    -1.0980 c3         1 EPV       0.204000
     25 N16          3.8930    -0.4290    -0.2790 nd         1 EPV      -0.348700
     26 N15          4.4500     0.7340    -0.6400 nd         1 EPV      -0.063000
     27 N7           2.4870     3.7440    -0.9570 nd         1 EPV      -0.666000
     28 N10          2.2950     1.0420    -0.3850 na         1 EPV       0.032200
     29 N13         -3.5220     2.1790     0.5620 ns         1 EPV      -0.497900
     30 O14         -2.7780     0.2380    -0.3360 o          1 EPV      -0.599100
     31 CL4          1.4540     0.0360     2.6700 cl         1 EPV      -0.193000
     32 H1          -0.2780     0.1710    -0.0820 ha         1 EPV       0.157000
     33 H2          -1.9800     4.0740    -0.5020 ha         1 EPV       0.122000
     34 H3          -0.6610    -4.1330     1.5150 ha         1 EPV       0.125000
     35 H4          -0.1810    -2.2750     2.9820 ha         1 EPV       0.130000
     36 H5          -5.5790     3.7430     1.2100 hc         1 EPV       0.042700
     37 H6          -4.9430     3.6240    -1.2130 hc         1 EPV       0.036867
     38 H7          -6.2320     2.4520    -1.4860 hc         1 EPV       0.036867
     39 H8          -6.6250     4.1040    -1.0150 hc         1 EPV       0.036867
     40 H9           0.2480     5.0120    -0.9160 ha         1 EPV       0.140000
     41 H10          1.8480    -2.3910    -1.5060 ha         1 EPV       0.143000
     42 H11          4.7720     4.6970    -1.4920 hc         1 EPV       0.068033
     43 H12          5.5700     3.4930    -0.4620 hc         1 EPV       0.068033
     44 H13          5.3270     3.1520    -2.1650 hc         1 EPV       0.068033
     45 H14         -7.2510     2.1540     2.1420 hc         1 EPV       0.036867
     46 H15         -7.9950     3.2250     0.9570 hc         1 EPV       0.036867
     47 H16         -7.6070     1.5640     0.5170 hc         1 EPV       0.036867
     48 H17         -1.3210    -7.1710    -0.2270 hc         1 EPV       0.048367
     49 H18          0.4150    -6.8940    -0.1170 hc         1 EPV       0.048367
     50 H19         -0.6960    -6.0580     0.9710 hc         1 EPV       0.048367
     51 H20         -0.6470    -5.1640    -3.2650 hc         1 EPV       0.048367
     52 H21          0.4210    -6.4100    -2.5980 hc         1 EPV       0.048367
     53 H22         -1.3200    -6.6750    -2.6510 hc         1 EPV       0.048367
     54 H23         -2.2340    -4.1730    -0.0110 hc         1 EPV       0.048367
     55 H24         -2.1060    -3.7830    -1.7300 hc         1 EPV       0.048367
     56 H25         -2.8380    -5.2990    -1.2070 hc         1 EPV       0.048367
     57 H26         -4.9400     1.4230     1.8970 h1         1 EPV       0.056200
     58 H27         -5.1150     0.8970     0.2290 h1         1 EPV       0.056200
     59 H28         -3.2390     3.0670     0.9450 hn         1 EPV       0.313500
     60 O29          0.4120    -4.3860    -1.0300 os         1 EPV      -0.366100
     61 C25         -4.8740     1.7560     0.8560 c3         1 EPV       0.098000
@<TRIPOS>BOND
     1     1     2 ar  
     2     1    15 ar  
     3     1    32 1   
     4     2     3 ar  
     5     2    18 1   
     6     3    11 ar  
     7     3    33 1   
     8     4    17 1   
     9     4    19 1   
    10     4    27 2   
    11     5    13 1   
    12     5    25 2   
    13     5    28 1   
    14     6     7 ar  
    15     6    12 ar  
    16     6    60 1   
    17     7     8 ar  
    18     7    34 1   
    19     8    16 ar  
    20     8    35 1   
    21     9    10 1   
    22     9    20 1   
    23     9    36 1   
    24     9    61 1   
    25    10    37 1   
    26    10    38 1   
    27    10    39 1   
    28    11    14 ar  
    29    11    40 1   
    30    12    13 ar  
    31    12    41 1   
    32    13    16 ar  
    33    14    15 ar  
    34    14    27 1   
    35    15    28 1   
    36    16    31 1   
    37    17    26 2   
    38    17    28 1   
    39    18    29 1   
    40    18    30 2   
    41    19    42 1   
    42    19    43 1   
    43    19    44 1   
    44    20    45 1   
    45    20    46 1   
    46    20    47 1   
    47    21    24 1   
    48    21    48 1   
    49    21    49 1   
    50    21    50 1   
    51    22    24 1   
    52    22    51 1   
    53    22    52 1   
    54    22    53 1   
    55    23    24 1   
    56    23    54 1   
    57    23    55 1   
    58    23    56 1   
    59    24    60 1   
    60    25    26 1   
    61    29    59 1   
    62    29    61 1   
    63    57    61 1   
    64    58    61 1   
@<TRIPOS>SUBSTRUCTURE
     1 EPV         1 TEMP              0 ****  ****    0 ROOT
