@<TRIPOS>MOLECULE
EPW
   54    53     1     0     0
SMALL
No Charge or Current Charge


@<TRIPOS>ATOM
      1 C4          -3.9230     0.1540     0.0800 c3         1 EPW      -0.228700
      2 C5          -4.9950     1.3000     0.0850 c3         1 EPW      -0.037700
      3 C6          -4.3940     2.6900    -0.2470 c3         1 EPW      -0.082100
      4 C7          -6.1730     1.0000    -0.8760 c3         1 EPW      -0.082100
      5 C15          0.5950    -1.3140    -1.7990 c3         1 EPW      -0.060700
      6 C17          0.3690    -0.2000    -2.8520 c3         1 EPW      -0.091100
      7 C21          4.5190     0.1660    -0.1680 c3         1 EPW      -0.028300
      8 C22          4.8910     0.4030     1.3300 c3         1 EPW      -0.049700
      9 C24          4.9550    -0.9010     2.1640 c3         1 EPW      -0.074600
     10 C1          -4.5650    -1.2300     0.3200 c          1 EPW       0.721000
     11 O3          -5.0290    -1.4560     1.4310 o          1 EPW      -0.723000
     12 C9          -2.7460     0.3730     1.0780 c3         1 EPW       0.129300
     13 O10         -3.2580     0.2590     2.4240 oh         1 EPW      -0.709000
     14 C11         -1.5540    -0.6100     0.7860 c          1 EPW       0.580100
     15 O12         -1.5220    -1.7710     1.1810 o          1 EPW      -0.611100
     16 N13         -0.5040    -0.0490     0.0870 ns         1 EPW      -0.495900
     17 C14          0.7240    -0.7610    -0.3440 c3         1 EPW       0.031700
     18 C18          1.9710     0.1620    -0.1710 c          1 EPW       0.592100
     19 O19          1.8890     1.3600     0.0770 o          1 EPW      -0.628100
     20 N20          3.1880    -0.4730    -0.3190 ns         1 EPW      -0.466900
     21 C25          5.6060    -0.6340    -0.9620 c          1 EPW       0.719000
     22 O26          5.5360    -1.8570    -0.9850 o          1 EPW      -0.731500
     23 O27          6.3840    -0.0040    -1.6650 o          1 EPW      -0.731500
     24 H1          -3.4980     0.1410    -0.9310 hc         1 EPW       0.050700
     25 H2          -5.4210     1.3660     1.0950 hc         1 EPW       0.054700
     26 H3          -3.8580     2.6670    -1.2040 hc         1 EPW       0.020200
     27 H4          -5.1840     3.4470    -0.3180 hc         1 EPW       0.020200
     28 H5          -3.7000     3.0240     0.5330 hc         1 EPW       0.020200
     29 H6          -6.7080     0.0900    -0.5810 hc         1 EPW       0.020200
     30 H7          -6.9000     1.8210    -0.8670 hc         1 EPW       0.020200
     31 H8          -5.8150     0.8730    -1.9040 hc         1 EPW       0.020200
     32 H9           1.5490    -1.7960    -2.0490 hc         1 EPW       0.044700
     33 H10         -0.5850     0.3140    -2.6860 hc         1 EPW       0.038033
     34 H11          1.1720     0.5460    -2.8160 hc         1 EPW       0.038033
     35 H12          0.3540    -0.6240    -3.8630 hc         1 EPW       0.038033
     36 H13          4.4560     1.1510    -0.6500 h1         1 EPW       0.056700
     37 H14          4.0890     1.0110     1.7660 hc         1 EPW       0.010700
     38 H15          5.7630    -1.5540     1.8150 hc         1 EPW       0.024033
     39 H16          5.1400    -0.6710     3.2200 hc         1 EPW       0.024033
     40 H17          4.0120    -1.4550     2.1050 hc         1 EPW       0.024033
     41 H19         -2.3380     1.3800     0.9350 h1         1 EPW       0.034700
     42 H20         -3.9700    -0.4380     2.3440 ho         1 EPW       0.515000
     43 H21         -0.5840     0.9350    -0.1460 hn         1 EPW       0.323500
     44 H22          0.8880    -1.6100     0.3320 h1         1 EPW       0.069700
     45 H23         -1.4880    -2.0100    -1.7660 hc         1 EPW       0.038033
     46 H24         -0.4550    -2.8720    -2.9210 hc         1 EPW       0.038033
     47 H25         -0.3120    -3.2120    -1.1860 hc         1 EPW       0.038033
     48 H26          3.1670    -1.4630    -0.5360 hn         1 EPW       0.293500
     49 H28          6.1220     2.1640     0.9180 hc         1 EPW       0.024033
     50 H29          6.3590     1.4830     2.5380 hc         1 EPW       0.024033
     51 H30          7.0600     0.6670     1.1270 hc         1 EPW       0.024033
     52 OXT         -4.5510    -2.0440    -0.5900 o          1 EPW      -0.723000
     53 C23          6.1890     1.2280     1.4850 c3         1 EPW      -0.074600
     54 C16         -0.4820    -2.4180    -1.9230 c3         1 EPW      -0.091100
@<TRIPOS>BOND
     1     1     2 1   
     2     1    10 1   
     3     1    12 1   
     4     1    24 1   
     5     2     3 1   
     6     2     4 1   
     7     2    25 1   
     8     3    26 1   
     9     3    27 1   
    10     3    28 1   
    11     4    29 1   
    12     4    30 1   
    13     4    31 1   
    14     5     6 1   
    15     5    17 1   
    16     5    32 1   
    17     5    54 1   
    18     6    33 1   
    19     6    34 1   
    20     6    35 1   
    21     7     8 1   
    22     7    20 1   
    23     7    21 1   
    24     7    36 1   
    25     8     9 1   
    26     8    37 1   
    27     8    53 1   
    28     9    38 1   
    29     9    39 1   
    30     9    40 1   
    31    10    11 1   
    32    10    52 1   
    33    12    13 1   
    34    12    14 1   
    35    12    41 1   
    36    13    42 1   
    37    14    15 2   
    38    14    16 1   
    39    16    17 1   
    40    16    43 1   
    41    17    18 1   
    42    17    44 1   
    43    18    19 2   
    44    18    20 1   
    45    20    48 1   
    46    21    22 1   
    47    21    23 1   
    48    45    54 1   
    49    46    54 1   
    50    47    54 1   
    51    49    53 1   
    52    50    53 1   
    53    51    53 1   
@<TRIPOS>SUBSTRUCTURE
     1 EPW         1 TEMP              0 ****  ****    0 ROOT
