@<TRIPOS>MOLECULE
EPW
   54    53     1     0     0
SMALL
abcg2


@<TRIPOS>ATOM
      1 C4          -3.7580     0.3590    -0.1190 c3         1 EPW      -0.228700
      2 C5          -4.8820     1.3560    -0.4610 c3         1 EPW      -0.037700
      3 C6          -4.3430     2.7570    -0.7400 c3         1 EPW      -0.082100
      4 C7          -5.6840     0.8710    -1.6670 c3         1 EPW      -0.082100
      5 C15          0.5440    -1.6300    -0.8900 c3         1 EPW      -0.060700
      6 C17          0.4020    -0.9190    -2.2310 c3         1 EPW      -0.091100
      7 C21          4.0890     0.5650     0.3800 c3         1 EPW      -0.028300
      8 C22          5.2320    -0.1460     1.1260 c3         1 EPW      -0.049700
      9 C24          5.6100    -1.4920     0.5090 c3         1 EPW      -0.074600
     10 C1          -4.3440    -1.0340     0.1820 c          1 EPW       0.721000
     11 O3          -4.9640    -1.1320     1.2780 o          1 EPW      -0.723000
     12 C9          -2.9090     0.8210     1.0870 c3         1 EPW       0.129300
     13 O10         -3.6630     0.8970     2.2560 oh         1 EPW      -0.709000
     14 C11         -1.7140    -0.1250     1.2550 c          1 EPW       0.580100
     15 O12         -1.6880    -1.0050     2.1000 o          1 EPW      -0.611100
     16 N13         -0.7240     0.0950     0.3710 ns         1 EPW      -0.495900
     17 C14          0.5060    -0.6490     0.3040 c3         1 EPW       0.031700
     18 C18          1.6720     0.3360     0.2320 c          1 EPW       0.592100
     19 O19          1.5140     1.4890    -0.1470 o          1 EPW      -0.628100
     20 N20          2.8540    -0.1570     0.6100 ns         1 EPW      -0.466900
     21 C25          4.3860     0.7320    -1.1310 c          1 EPW       0.719000
     22 O26          3.9120    -0.1190    -1.9040 o          1 EPW      -0.731500
     23 O27          5.1100     1.7020    -1.4330 o          1 EPW      -0.731500
     24 H1          -3.1000     0.2890    -0.9930 hc         1 EPW       0.050700
     25 H2          -5.5610     1.4170     0.3940 hc         1 EPW       0.054700
     26 H3          -3.5720     2.7350    -1.5140 hc         1 EPW       0.020200
     27 H4          -5.1430     3.4120    -1.0910 hc         1 EPW       0.020200
     28 H5          -3.9140     3.2280     0.1450 hc         1 EPW       0.020200
     29 H6          -6.1420    -0.1040    -1.4990 hc         1 EPW       0.020200
     30 H7          -6.4890     1.5710    -1.9000 hc         1 EPW       0.020200
     31 H8          -5.0500     0.7900    -2.5530 hc         1 EPW       0.020200
     32 H9           1.5280    -2.1100    -0.8680 hc         1 EPW       0.044700
     33 H10         -0.5550    -0.3960    -2.3040 hc         1 EPW       0.038033
     34 H11          1.2050    -0.2020    -2.3990 hc         1 EPW       0.038033
     35 H12          0.4350    -1.6440    -3.0450 hc         1 EPW       0.038033
     36 H13          3.9790     1.5590     0.8220 h1         1 EPW       0.056700
     37 H14          4.8570    -0.3370     2.1390 hc         1 EPW       0.010700
     38 H15          6.0420    -1.3700    -0.4850 hc         1 EPW       0.024033
     39 H16          6.3520    -1.9930     1.1340 hc         1 EPW       0.024033
     40 H17          4.7620    -2.1720     0.4150 hc         1 EPW       0.024033
     41 H19         -2.5060     1.8180     0.8730 h1         1 EPW       0.034700
     42 H20         -4.2920     0.1400     2.1730 ho         1 EPW       0.515000
     43 H21         -0.7850     0.9090    -0.2220 hn         1 EPW       0.323500
     44 H22          0.5910    -1.2340     1.2230 h1         1 EPW       0.069700
     45 H23         -1.5260    -2.2960    -0.7790 hc         1 EPW       0.038033
     46 H24         -0.4280    -3.4420    -1.5380 hc         1 EPW       0.038033
     47 H25         -0.4190    -3.2440     0.2140 hc         1 EPW       0.038033
     48 H26          2.9100    -1.1380     0.8320 hn         1 EPW       0.293500
     49 H28          6.2140     1.6970     1.7270 hc         1 EPW       0.024033
     50 H29          7.2150     0.2560     1.8850 hc         1 EPW       0.024033
     51 H30          6.9150     0.9530     0.2930 hc         1 EPW       0.024033
     52 OXT         -4.1900    -1.9460    -0.6410 o          1 EPW      -0.723000
     53 C23          6.4640     0.7430     1.2610 c3         1 EPW      -0.074600
     54 C16         -0.5180    -2.7110    -0.7330 c3         1 EPW      -0.091100
@<TRIPOS>BOND
     1     1     2 1   
     2     1    10 1   
     3     1    12 1   
     4     1    24 1   
     5     2     3 1   
     6     2     4 1   
     7     2    25 1   
     8     3    26 1   
     9     3    27 1   
    10     3    28 1   
    11     4    29 1   
    12     4    30 1   
    13     4    31 1   
    14     5     6 1   
    15     5    17 1   
    16     5    32 1   
    17     5    54 1   
    18     6    33 1   
    19     6    34 1   
    20     6    35 1   
    21     7     8 1   
    22     7    20 1   
    23     7    21 1   
    24     7    36 1   
    25     8     9 1   
    26     8    37 1   
    27     8    53 1   
    28     9    38 1   
    29     9    39 1   
    30     9    40 1   
    31    10    11 1   
    32    10    52 1   
    33    12    13 1   
    34    12    14 1   
    35    12    41 1   
    36    13    42 1   
    37    14    15 2   
    38    14    16 1   
    39    16    17 1   
    40    16    43 1   
    41    17    18 1   
    42    17    44 1   
    43    18    19 2   
    44    18    20 1   
    45    20    48 1   
    46    21    22 1   
    47    21    23 1   
    48    45    54 1   
    49    46    54 1   
    50    47    54 1   
    51    49    53 1   
    52    50    53 1   
    53    51    53 1   
@<TRIPOS>SUBSTRUCTURE
     1 EPW         1 TEMP              0 ****  ****    0 ROOT
