@<TRIPOS>MOLECULE
EPX
  103   103     1     0     0
SMALL
abcg2


@<TRIPOS>ATOM
      1 O9          11.5380  -138.6520    19.9350 o          1 EPX      -0.627100
      2 N1          11.4900  -139.1070    22.9620 n          1 EPX      -0.411800
      3 C1          12.0450  -137.9750    22.2090 c3         1 EPX       0.036700
      4 C3          10.2830  -140.0570    24.8660 c3         1 EPX      -0.171100
      5 O1          10.4580  -137.7140    24.4320 o          1 EPX      -0.620100
      6 C4          11.3080  -137.8830    20.8700 c          1 EPX       0.591100
      7 C5          13.5700  -138.0450    22.0280 c3         1 EPX      -0.062700
      8 C6          14.0440  -136.8160    21.2470 c3         1 EPX      -0.094100
      9 C7          14.2650  -138.1570    23.3920 c3         1 EPX      -0.074400
     10 C8          11.8160  -140.4640    22.5260 c3         1 EPX       0.085300
     11 C9          15.7580  -138.4640    23.3010 c3         1 EPX      -0.088100
     12 N2          10.3690  -136.9250    20.7970 ns         1 EPX      -0.481900
     13 C10          9.5780  -136.6990    19.6010 c3         1 EPX       0.047700
     14 C11         10.4840  -136.1570    18.4920 c          1 EPX       0.585100
     15 O2          11.2640  -135.2260    18.6860 o          1 EPX      -0.609100
     16 C12          8.4230  -135.7240    19.9050 c3         1 EPX      -0.066700
     17 C13          7.7080  -135.3020    18.6210 c3         1 EPX      -0.091100
     18 C14          7.4520  -136.3550    20.9160 c3         1 EPX      -0.078400
     19 C15          6.4560  -135.3630    21.5140 c3         1 EPX      -0.088100
     20 N3          10.3610  -136.7550    17.2980 ns         1 EPX      -0.483900
     21 C16         11.0960  -136.3100    16.1480 c3         1 EPX      -0.082300
     22 C17         10.6060  -137.1240    14.9280 c          1 EPX       0.601100
     23 C18         12.6200  -136.4570    16.2970 c          1 EPX       0.580100
     24 O4          13.3410  -135.6310    15.7760 o          1 EPX      -0.530100
     25 C19         13.1330  -137.6670    17.0120 c3         1 EPX      -0.197100
     26 N5          11.2430  -136.8400    13.7870 ns         1 EPX      -0.487900
     27 C26         10.7140  -136.2920    11.4510 c3         1 EPX      -0.078400
     28 C23          9.2860  -135.7330    11.3740 c3         1 EPX      -0.062700
     29 C25          9.2010  -134.7090    10.2410 c3         1 EPX      -0.090100
     30 C24          8.7970  -135.1220    12.6890 c3         1 EPX      -0.090100
     31 C20         10.9020  -137.4040    12.4910 c3         1 EPX       0.130700
     32 C21         11.8490  -138.5770    12.0890 c6         1 EPX       0.370000
     33 O6          11.6360  -139.5440    13.1000 oh         1 EPX      -0.654000
     34 C29         13.3900  -138.3570    11.9120 c6         1 EPX       0.187200
     35 N4          13.9610  -139.6290    11.4380 n7         1 EPX      -0.930400
     36 C32         13.1550  -140.5630    10.6880 c6         1 EPX       0.061500
     37 C31         13.9880  -141.3890     9.7260 c          1 EPX       0.562900
     38 O5          15.1680  -141.2320     9.5230 o          1 EPX      -0.480100
     39 C22         12.0440  -139.8100     9.9450 c6         1 EPX       0.185300
     40 C30         11.0630  -140.7020     9.2110 c3         1 EPX      -0.098100
     41 O8          11.2750  -139.0290    10.8680 os         1 EPX      -0.494000
     42 C28         14.0980  -138.0160    13.2270 c3         1 EPX      -0.102100
     43 C27         13.6760  -137.2240    10.9080 c3         1 EPX       0.173600
     44 O7          15.0830  -137.1520    10.6810 oh         1 EPX      -0.643000
     45 O3           9.6940  -137.9330    15.0510 o          1 EPX      -0.592100
     46 H11         11.8120  -137.0910    22.7980 h1         1 EPX       0.091700
     47 H31A         9.8190  -139.7010    25.7820 hc         1 EPX       0.063033
     48 H32A         9.5510  -140.6360    24.2980 hc         1 EPX       0.063033
     49 H33         11.1110  -140.7240    25.1100 hc         1 EPX       0.063033
     50 H51         13.8080  -138.9360    21.4410 hc         1 EPX       0.062700
     51 H61         15.1210  -136.8520    21.0820 hc         1 EPX       0.043367
     52 H62         13.5660  -136.7490    20.2700 hc         1 EPX       0.043367
     53 H63         13.8180  -135.9000    21.8000 hc         1 EPX       0.043367
     54 H71         14.1100  -137.2220    23.9410 hc         1 EPX       0.042700
     55 H72         13.7810  -138.9410    23.9780 hc         1 EPX       0.042700
     56 H81         10.9510  -141.1150    22.6230 h1         1 EPX       0.048367
     57 H82         12.0950  -140.4320    21.4780 h1         1 EPX       0.048367
     58 H83         12.6440  -140.8840    23.1030 h1         1 EPX       0.048367
     59 H91         16.1870  -138.5910    24.2970 hc         1 EPX       0.033700
     60 H92         15.9300  -139.3880    22.7430 hc         1 EPX       0.033700
     61 H93         16.3110  -137.6650    22.8030 hc         1 EPX       0.033700
     62 HN21        10.2730  -136.2780    21.5640 hn         1 EPX       0.336500
     63 H10          9.1610  -137.6550    19.2770 h1         1 EPX       0.074700
     64 H12          8.8710  -134.8340    20.3620 hc         1 EPX       0.064700
     65 H131         6.8710  -134.6430    18.8490 hc         1 EPX       0.042033
     66 H132         8.3730  -134.7640    17.9440 hc         1 EPX       0.042033
     67 H133         7.3170  -136.1740    18.0920 hc         1 EPX       0.042033
     68 H141         6.9150  -137.1700    20.4170 hc         1 EPX       0.045200
     69 H142         8.0200  -136.8120    21.7290 hc         1 EPX       0.045200
     70 H151         5.8250  -135.8550    22.2580 hc         1 EPX       0.035700
     71 H152         6.9790  -134.5410    22.0100 hc         1 EPX       0.035700
     72 H153         5.7990  -134.9340    20.7560 hc         1 EPX       0.035700
     73 HN31         9.7190  -137.5220    17.1510 hn         1 EPX       0.353500
     74 H16         10.9050  -135.2530    15.9470 h1         1 EPX       0.093700
     75 H191        14.2200  -137.6840    16.9770 hc         1 EPX       0.075033
     76 H192        12.7850  -137.6860    18.0460 hc         1 EPX       0.075033
     77 H193        12.7300  -138.5640    16.5330 hc         1 EPX       0.075033
     78 HN51        11.9150  -136.0860    13.8010 hn         1 EPX       0.326500
     79 H261        10.9720  -136.6830    10.4700 hc         1 EPX       0.051700
     80 H262        11.4040  -135.4700    11.6620 hc         1 EPX       0.051700
     81 H23          8.6230  -136.5700    11.1240 hc         1 EPX       0.054700
     82 H251         8.1800  -134.3380    10.1260 hc         1 EPX       0.035033
     83 H252         9.8470  -133.8510    10.4480 hc         1 EPX       0.035033
     84 H253         9.5160  -135.1440     9.2900 hc         1 EPX       0.035033
     85 H241         7.8150  -134.6650    12.5520 hc         1 EPX       0.035033
     86 H242         8.7040  -135.8670    13.4800 hc         1 EPX       0.035033
     87 H243         9.4850  -134.3440    13.0350 hc         1 EPX       0.035033
     88 H20          9.9490  -137.9150    12.6260 h1         1 EPX       0.106700
     89 HO61        12.3840  -140.1530    13.1270 ho         1 EPX       0.442000
     90 HN41        14.5330  -140.0830    12.1340 hn         1 EPX       0.457000
     91 H32         12.6500  -141.3200    11.3150 h1         1 EPX       0.040700
     92 H31         13.4350  -142.2020     9.2230 h4         1 EPX      -0.010800
     93 H22         12.5190  -139.1320     9.2290 h1         1 EPX       0.056700
     94 H301        10.2480  -140.0900     8.8250 hc         1 EPX       0.050033
     95 H302        11.5390  -141.2010     8.3650 hc         1 EPX       0.050033
     96 H303        10.6480  -141.4570     9.8800 hc         1 EPX       0.050033
     97 H281        15.1720  -138.1340    13.0830 hc         1 EPX       0.054700
     98 H282        13.9210  -136.9860    13.5240 hc         1 EPX       0.054700
     99 H283        13.7800  -138.6700    14.0360 hc         1 EPX       0.054700
    100 H271        13.1520  -137.3880     9.9650 h1         1 EPX       0.025200
    101 H272        13.3230  -136.2840    11.3340 h1         1 EPX       0.025200
    102 HO71        15.2550  -136.3500    10.1740 ho         1 EPX       0.438000
    103 C2          10.7480  -138.8590    24.0720 c          1 EPX       0.599100
@<TRIPOS>BOND
     1     1     6 2   
     2     2     3 1   
     3     2    10 1   
     4     2   103 1   
     5     3     6 1   
     6     3     7 1   
     7     3    46 1   
     8     4    47 1   
     9     4    48 1   
    10     4    49 1   
    11     4   103 1   
    12     5   103 2   
    13     6    12 1   
    14     7     8 1   
    15     7     9 1   
    16     7    50 1   
    17     8    51 1   
    18     8    52 1   
    19     8    53 1   
    20     9    11 1   
    21     9    54 1   
    22     9    55 1   
    23    10    56 1   
    24    10    57 1   
    25    10    58 1   
    26    11    59 1   
    27    11    60 1   
    28    11    61 1   
    29    12    13 1   
    30    12    62 1   
    31    13    14 1   
    32    13    16 1   
    33    13    63 1   
    34    14    15 2   
    35    14    20 1   
    36    16    17 1   
    37    16    18 1   
    38    16    64 1   
    39    17    65 1   
    40    17    66 1   
    41    17    67 1   
    42    18    19 1   
    43    18    68 1   
    44    18    69 1   
    45    19    70 1   
    46    19    71 1   
    47    19    72 1   
    48    20    21 1   
    49    20    73 1   
    50    21    22 1   
    51    21    23 1   
    52    21    74 1   
    53    22    26 1   
    54    22    45 2   
    55    23    24 2   
    56    23    25 1   
    57    25    75 1   
    58    25    76 1   
    59    25    77 1   
    60    26    31 1   
    61    26    78 1   
    62    27    28 1   
    63    27    31 1   
    64    27    79 1   
    65    27    80 1   
    66    28    29 1   
    67    28    30 1   
    68    28    81 1   
    69    29    82 1   
    70    29    83 1   
    71    29    84 1   
    72    30    85 1   
    73    30    86 1   
    74    30    87 1   
    75    31    32 1   
    76    31    88 1   
    77    32    33 1   
    78    32    34 1   
    79    32    41 1   
    80    33    89 1   
    81    34    35 1   
    82    34    42 1   
    83    34    43 1   
    84    35    36 1   
    85    35    90 1   
    86    36    37 1   
    87    36    39 1   
    88    36    91 1   
    89    37    38 2   
    90    37    92 1   
    91    39    40 1   
    92    39    41 1   
    93    39    93 1   
    94    40    94 1   
    95    40    95 1   
    96    40    96 1   
    97    42    97 1   
    98    42    98 1   
    99    42    99 1   
   100    43    44 1   
   101    43   100 1   
   102    43   101 1   
   103    44   102 1   
@<TRIPOS>SUBSTRUCTURE
     1 EPX         1 TEMP              0 ****  ****    0 ROOT
