@<TRIPOS>MOLECULE
EPX
  103   103     1     0     0
SMALL
No Charge or Current Charge


@<TRIPOS>ATOM
      1 O9          10.3220  -139.2700    21.4920 o          1 EPX      -0.627100
      2 N1          11.2570  -138.5570    24.1920 n          1 EPX      -0.411800
      3 C1          11.8820  -138.0130    22.9030 c3         1 EPX       0.036700
      4 C3           9.7040  -138.2390    26.1820 c3         1 EPX      -0.171100
      5 O1           9.9520  -136.6730    24.3950 o          1 EPX      -0.620100
      6 C4          10.9310  -138.2250    21.6890 c          1 EPX       0.591100
      7 C5          13.3320  -138.5460    22.6140 c3         1 EPX      -0.062700
      8 C6          13.9040  -137.9990    21.2760 c3         1 EPX      -0.094100
      9 C7          14.2930  -138.2380    23.8050 c3         1 EPX      -0.074400
     10 C8          11.3940  -140.0160    24.5780 c3         1 EPX       0.085300
     11 C9          15.6890  -138.8910    23.7080 c3         1 EPX      -0.088100
     12 N2          10.8140  -137.1440    20.8370 ns         1 EPX      -0.481900
     13 C10         10.0060  -137.1160    19.5960 c3         1 EPX       0.047700
     14 C11         10.8840  -136.5010    18.4670 c          1 EPX       0.585100
     15 O2          11.7090  -135.6200    18.6680 o          1 EPX      -0.609100
     16 C12          8.6590  -136.3450    19.8140 c3         1 EPX      -0.066700
     17 C13          7.8410  -136.2140    18.4980 c3         1 EPX      -0.091100
     18 C14          7.8040  -136.9700    20.9610 c3         1 EPX      -0.078400
     19 C15          6.5160  -136.1970    21.3220 c3         1 EPX      -0.088100
     20 N3          10.7070  -137.0420    17.2100 ns         1 EPX      -0.483900
     21 C16         11.4300  -136.5910    15.9800 c3         1 EPX      -0.082300
     22 C17         10.8220  -137.2110    14.7160 c          1 EPX       0.601100
     23 C18         12.9250  -136.9440    16.0340 c          1 EPX       0.580100
     24 O4          13.7830  -136.1180    15.7510 o          1 EPX      -0.530100
     25 C19         13.3060  -138.3720    16.4290 c3         1 EPX      -0.197100
     26 N5          11.3150  -136.7140    13.5280 ns         1 EPX      -0.487900
     27 C26         10.5610  -136.0090    11.2570 c3         1 EPX      -0.078400
     28 C23          9.1140  -135.4510    11.4060 c3         1 EPX      -0.062700
     29 C25          8.8220  -134.3990    10.3120 c3         1 EPX      -0.090100
     30 C24          8.8100  -134.8700    12.8080 c3         1 EPX      -0.090100
     31 C20         10.9320  -137.2040    12.1860 c3         1 EPX       0.130700
     32 C21         11.9300  -138.3060    11.5950 c6         1 EPX       0.370000
     33 O6          12.0040  -139.3760    12.5400 oh         1 EPX      -0.654000
     34 C29         13.4390  -137.8770    11.2190 c6         1 EPX       0.187200
     35 N4          14.2000  -139.0850    10.7040 n7         1 EPX      -0.930400
     36 C32         13.3810  -140.1910    10.0560 c6         1 EPX       0.061500
     37 C31         14.1960  -140.9810     8.9810 c          1 EPX       0.562900
     38 O5          15.2270  -141.5980     9.2400 o          1 EPX      -0.480100
     39 C22         12.0300  -139.6420     9.4780 c6         1 EPX       0.185300
     40 C30         11.0760  -140.7470     8.9500 c3         1 EPX      -0.098100
     41 O8          11.2490  -138.8700    10.4430 os         1 EPX      -0.494000
     42 C28         14.2490  -137.3750    12.4580 c3         1 EPX      -0.102100
     43 C27         13.5060  -136.7230    10.1310 c3         1 EPX       0.173600
     44 O7          14.8300  -136.4530     9.6240 oh         1 EPX      -0.643000
     45 O3           9.9600  -138.0760    14.7630 o          1 EPX      -0.592100
     46 H11         11.9810  -136.9260    23.0210 h1         1 EPX       0.091700
     47 H31A         9.1180  -137.4610    26.6830 hc         1 EPX       0.063033
     48 H32A         9.0860  -139.1250    26.0030 hc         1 EPX       0.063033
     49 H33         10.5070  -138.6210    26.8220 hc         1 EPX       0.063033
     50 H51         13.2820  -139.6340    22.4970 hc         1 EPX       0.062700
     51 H61         14.9070  -138.3940    21.0780 hc         1 EPX       0.043367
     52 H62         13.2840  -138.2960    20.4220 hc         1 EPX       0.043367
     53 H63         13.9670  -136.9040    21.2940 hc         1 EPX       0.043367
     54 H71         14.4130  -137.1510    23.9030 hc         1 EPX       0.042700
     55 H72         13.8400  -138.5790    24.7420 hc         1 EPX       0.042700
     56 H81         10.4050  -140.4580    24.7520 h1         1 EPX       0.048367
     57 H82         11.8730  -140.5910    23.7790 h1         1 EPX       0.048367
     58 H83         11.9970  -140.1040    25.4910 h1         1 EPX       0.048367
     59 H91         16.2430  -138.7360    24.6410 hc         1 EPX       0.033700
     60 H92         15.6030  -139.9710    23.5390 hc         1 EPX       0.033700
     61 H93         16.2810  -138.4540    22.8950 hc         1 EPX       0.033700
     62 HN21        11.3620  -136.3210    21.0620 hn         1 EPX       0.336500
     63 H10          9.7760  -138.1480    19.2990 h1         1 EPX       0.074700
     64 H12          8.9210  -135.3250    20.1260 hc         1 EPX       0.064700
     65 H131         6.9270  -135.6300    18.6520 hc         1 EPX       0.042033
     66 H132         8.4110  -135.6910    17.7220 hc         1 EPX       0.042033
     67 H133         7.5560  -137.2020    18.1150 hc         1 EPX       0.042033
     68 H141         7.5400  -138.0020    20.7000 hc         1 EPX       0.045200
     69 H142         8.4060  -137.0250    21.8750 hc         1 EPX       0.045200
     70 H151         6.0660  -136.6190    22.2290 hc         1 EPX       0.035700
     71 H152         6.7360  -135.1400    21.5110 hc         1 EPX       0.035700
     72 H153         5.7710  -136.2640    20.5210 hc         1 EPX       0.035700
     73 HN31        10.0050  -137.7710    17.1150 hn         1 EPX       0.353500
     74 H16         11.3440  -135.5010    15.8930 h1         1 EPX       0.093700
     75 H191        14.3750  -138.5720    16.2920 hc         1 EPX       0.075033
     76 H192        13.0110  -138.5400    17.4700 hc         1 EPX       0.075033
     77 H193        12.6770  -139.0860    15.8850 hc         1 EPX       0.075033
     78 HN51        11.9910  -135.9620    13.5910 hn         1 EPX       0.326500
     79 H261        10.6760  -136.3300    10.2150 hc         1 EPX       0.051700
     80 H262        11.2670  -135.1850    11.4120 hc         1 EPX       0.051700
     81 H23          8.4180  -136.2830    11.2400 hc         1 EPX       0.054700
     82 H251         7.7840  -134.0510    10.3730 hc         1 EPX       0.035033
     83 H252         9.4820  -133.5290    10.4190 hc         1 EPX       0.035033
     84 H253         8.9740  -134.8230     9.3120 hc         1 EPX       0.035033
     85 H241         7.8240  -134.3890    12.8220 hc         1 EPX       0.035033
     86 H242         8.7930  -135.6580    13.5680 hc         1 EPX       0.035033
     87 H243         9.5580  -134.1210    13.0940 hc         1 EPX       0.035033
     88 H20          9.9870  -137.7520    12.3050 h1         1 EPX       0.106700
     89 HO61        12.7330  -139.9210    12.1850 ho         1 EPX       0.442000
     90 HN41        14.8730  -139.4490    11.3940 hn         1 EPX       0.457000
     91 H32         13.1310  -140.9420    10.8190 h1         1 EPX       0.040700
     92 H31         13.8060  -140.9460     7.9400 h4         1 EPX      -0.010800
     93 H22         12.2640  -138.9800     8.6320 h1         1 EPX       0.056700
     94 H301        10.1300  -140.3140     8.6050 hc         1 EPX       0.050033
     95 H302        11.5100  -141.2910     8.1040 hc         1 EPX       0.050033
     96 H303        10.8430  -141.4770     9.7350 hc         1 EPX       0.050033
     97 H281        15.3110  -137.2440    12.2160 hc         1 EPX       0.054700
     98 H282        13.8890  -136.4040    12.8110 hc         1 EPX       0.054700
     99 H283        14.1970  -138.0770    13.2980 hc         1 EPX       0.054700
    100 H271        12.8430  -136.9800     9.2960 h1         1 EPX       0.025200
    101 H272        13.1180  -135.8020    10.5770 h1         1 EPX       0.025200
    102 HO71        14.7300  -135.8170     8.8840 ho         1 EPX       0.438000
    103 C2          10.2870  -137.7590    24.8490 c          1 EPX       0.599100
@<TRIPOS>BOND
     1     1     6 2   
     2     2     3 1   
     3     2    10 1   
     4     2   103 1   
     5     3     6 1   
     6     3     7 1   
     7     3    46 1   
     8     4    47 1   
     9     4    48 1   
    10     4    49 1   
    11     4   103 1   
    12     5   103 2   
    13     6    12 1   
    14     7     8 1   
    15     7     9 1   
    16     7    50 1   
    17     8    51 1   
    18     8    52 1   
    19     8    53 1   
    20     9    11 1   
    21     9    54 1   
    22     9    55 1   
    23    10    56 1   
    24    10    57 1   
    25    10    58 1   
    26    11    59 1   
    27    11    60 1   
    28    11    61 1   
    29    12    13 1   
    30    12    62 1   
    31    13    14 1   
    32    13    16 1   
    33    13    63 1   
    34    14    15 2   
    35    14    20 1   
    36    16    17 1   
    37    16    18 1   
    38    16    64 1   
    39    17    65 1   
    40    17    66 1   
    41    17    67 1   
    42    18    19 1   
    43    18    68 1   
    44    18    69 1   
    45    19    70 1   
    46    19    71 1   
    47    19    72 1   
    48    20    21 1   
    49    20    73 1   
    50    21    22 1   
    51    21    23 1   
    52    21    74 1   
    53    22    26 1   
    54    22    45 2   
    55    23    24 2   
    56    23    25 1   
    57    25    75 1   
    58    25    76 1   
    59    25    77 1   
    60    26    31 1   
    61    26    78 1   
    62    27    28 1   
    63    27    31 1   
    64    27    79 1   
    65    27    80 1   
    66    28    29 1   
    67    28    30 1   
    68    28    81 1   
    69    29    82 1   
    70    29    83 1   
    71    29    84 1   
    72    30    85 1   
    73    30    86 1   
    74    30    87 1   
    75    31    32 1   
    76    31    88 1   
    77    32    33 1   
    78    32    34 1   
    79    32    41 1   
    80    33    89 1   
    81    34    35 1   
    82    34    42 1   
    83    34    43 1   
    84    35    36 1   
    85    35    90 1   
    86    36    37 1   
    87    36    39 1   
    88    36    91 1   
    89    37    38 2   
    90    37    92 1   
    91    39    40 1   
    92    39    41 1   
    93    39    93 1   
    94    40    94 1   
    95    40    95 1   
    96    40    96 1   
    97    42    97 1   
    98    42    98 1   
    99    42    99 1   
   100    43    44 1   
   101    43   100 1   
   102    43   101 1   
   103    44   102 1   
@<TRIPOS>SUBSTRUCTURE
     1 EPX         1 TEMP              0 ****  ****    0 ROOT
