@<TRIPOS>MOLECULE
EPY
   58    58     1     0     0
SMALL
abcg2


@<TRIPOS>ATOM
      1 S           -0.2880    -0.5920     0.4670 ss         1 EPY      -0.393000
      2 C2A          2.2950    -1.2470    -0.1470 c3         1 EPY       0.043700
      3 C3A          3.2450    -2.1570    -0.9400 c          1 EPY       0.579100
      4 N4A          3.5730    -3.2860    -0.3150 ns         1 EPY      -0.457900
      5 C1A          0.8600    -1.6390    -0.4760 c3         1 EPY       0.052600
      6 C5A          4.3690    -4.3340    -0.9010 c3         1 EPY      -0.055000
      7 C6A          4.5230    -5.5210     0.0710 c          1 EPY       0.714000
      8 O6A          5.2160    -6.4630    -0.3500 o          1 EPY      -0.733000
      9 O3A          3.6120    -1.8620    -2.0680 o          1 EPY      -0.645100
     10 O7A          3.9490    -5.4300     1.1730 o          1 EPY      -0.733000
     11 C6B          5.2770     5.3890     0.8280 c          1 EPY       0.726000
     12 O7B          6.5060     5.5940     0.8630 o          1 EPY      -0.736000
     13 C5B          4.7410     4.5000    -0.3170 c3         1 EPY       0.021500
     14 N5B          5.6330     4.5560    -1.4620 n8         1 EPY      -0.999200
     15 C4B          4.5050     3.0910     0.2550 c3         1 EPY      -0.093400
     16 C3B          3.8330     2.1460    -0.7360 c3         1 EPY      -0.153400
     17 O2B          4.5650     0.1770     0.4350 o          1 EPY      -0.594100
     18 N1B          2.5150     0.1350    -0.4760 ns         1 EPY      -0.502900
     19 C1C         -1.8560    -1.4480     0.0880 c3         1 EPY       0.058300
     20 C3C         -2.1160    -2.5940     1.0480 c3         1 EPY       0.173600
     21 O2C         -2.2820    -2.0750     2.3430 oh         1 EPY      -0.649000
     22 C2C         -2.9330    -0.3740     0.0930 c3         1 EPY       0.174600
     23 O3C         -4.1800    -1.0130    -0.1390 os         1 EPY      -0.337100
     24 C4C         -5.2890    -0.2760    -0.2060 ca         1 EPY       0.214100
     25 C9C         -6.4810    -0.9740    -0.4400 ca         1 EPY      -0.197000
     26 C8C         -7.6770    -0.3010    -0.5290 ca         1 EPY      -0.003500
     27 C7C         -7.6940     1.0840    -0.3820 ca         1 EPY      -0.241200
     28 C6C         -6.5220     1.7890    -0.1490 ca         1 EPY      -0.003500
     29 C5C         -5.3190     1.1130    -0.0620 ca         1 EPY      -0.197000
     30 N8C         -8.9470     1.7950    -0.4750 no         1 EPY       0.705200
     31 O8C         -9.9500     1.1570    -0.7050 o          1 EPY      -0.418000
     32 O9C         -8.9390     2.9960    -0.3200 o          1 EPY      -0.418000
     33 H3A1         2.4600    -1.3960     0.9240 h1         1 EPY       0.090700
     34 HNA4         3.2470    -3.4760     0.6230 hn         1 EPY       0.341500
     35 H1A1         0.6670    -1.5350    -1.5460 h1         1 EPY       0.070200
     36 H1A2         0.7040    -2.6830    -0.2020 h1         1 EPY       0.070200
     37 H5A1         3.9130    -4.6900    -1.8300 h1         1 EPY       0.035200
     38 H5A2         5.3630    -3.9620    -1.1670 h1         1 EPY       0.035200
     39 H5B1         3.7670     4.8990    -0.6220 h1         1 EPY       0.035700
     40 HN51         6.5760     4.3690    -1.1440 hn         1 EPY       0.379000
     41 HN52         5.4020     3.8420    -2.1410 hn         1 EPY       0.379000
     42 H4B1         5.4600     2.6690     0.5790 hc         1 EPY       0.059700
     43 H4B2         3.8740     3.1740     1.1430 hc         1 EPY       0.059700
     44 H3B1         2.8610     2.5480    -1.0330 hc         1 EPY       0.043700
     45 H3B2         4.4260     2.0660    -1.6530 hc         1 EPY       0.043700
     46 HNB1         1.8550     0.6010    -1.0790 hn         1 EPY       0.311500
     47 H1C1        -1.7730    -1.8560    -0.9230 h1         1 EPY       0.076700
     48 H3C1        -3.0010    -3.1440     0.7090 h1         1 EPY       0.029700
     49 H3C2        -1.2720    -3.2940     0.9910 h1         1 EPY       0.029700
     50 HOC2        -2.5470    -2.7930     2.9240 ho         1 EPY       0.442000
     51 H2C1        -2.9530     0.1610     1.0480 h1         1 EPY       0.062700
     52 H2C2        -2.7260     0.3520    -0.6980 h1         1 EPY       0.062700
     53 H9C1        -6.4550    -2.0500    -0.5470 ha         1 EPY       0.140000
     54 H8C1        -8.5850    -0.8550    -0.7120 ha         1 EPY       0.146000
     55 H6C1        -6.5290     2.8630    -0.0380 ha         1 EPY       0.146000
     56 H5C1        -4.4190     1.6830     0.1190 ha         1 EPY       0.140000
     57 C2B          3.6860     0.7420    -0.2000 c          1 EPY       0.602100
     58 O6B          4.4320     5.7890     1.6550 o          1 EPY      -0.736000
@<TRIPOS>BOND
     1     1     5 1   
     2     1    19 1   
     3     2     3 1   
     4     2     5 1   
     5     2    18 1   
     6     2    33 1   
     7     3     4 1   
     8     3     9 2   
     9     4     6 1   
    10     4    34 1   
    11     5    35 1   
    12     5    36 1   
    13     6     7 1   
    14     6    37 1   
    15     6    38 1   
    16     7     8 1   
    17     7    10 1   
    18    11    12 1   
    19    11    13 1   
    20    11    58 1   
    21    13    14 1   
    22    13    15 1   
    23    13    39 1   
    24    14    40 1   
    25    14    41 1   
    26    15    16 1   
    27    15    42 1   
    28    15    43 1   
    29    16    44 1   
    30    16    45 1   
    31    16    57 1   
    32    17    57 2   
    33    18    46 1   
    34    18    57 1   
    35    19    20 1   
    36    19    22 1   
    37    19    47 1   
    38    20    21 1   
    39    20    48 1   
    40    20    49 1   
    41    21    50 1   
    42    22    23 1   
    43    22    51 1   
    44    22    52 1   
    45    23    24 1   
    46    24    25 ar  
    47    24    29 ar  
    48    25    26 ar  
    49    25    53 1   
    50    26    27 ar  
    51    26    54 1   
    52    27    28 ar  
    53    27    30 1   
    54    28    29 ar  
    55    28    55 1   
    56    29    56 1   
    57    30    31 1   
    58    30    32 1   
@<TRIPOS>SUBSTRUCTURE
     1 EPY         1 TEMP              0 ****  ****    0 ROOT
