@<TRIPOS>MOLECULE
EPY
   58    58     1     0     0
SMALL
No Charge or Current Charge


@<TRIPOS>ATOM
      1 S            0.4940    -0.8970     0.7210 ss         1 EPY      -0.393000
      2 C2A          3.0060    -1.7860    -0.2310 c3         1 EPY       0.043700
      3 C3A          3.7970    -2.8310    -1.0680 c          1 EPY       0.579100
      4 N4A          3.8300    -4.1040    -0.5380 ns         1 EPY      -0.457900
      5 C1A          1.4830    -2.0390    -0.3570 c3         1 EPY       0.052600
      6 C5A          4.5070    -5.2660    -1.1620 c3         1 EPY      -0.055000
      7 C6A          4.5020    -6.5200    -0.2420 c          1 EPY       0.714000
      8 O6A          5.3900    -7.3460    -0.3940 o          1 EPY      -0.733000
      9 O3A          4.3590    -2.5610    -2.1250 o          1 EPY      -0.645100
     10 O7A          3.6390    -6.6110     0.6210 o          1 EPY      -0.733000
     11 C6B          1.4940     5.1040    -1.0590 c          1 EPY       0.726000
     12 O7B          1.1030     5.5700     0.0060 o          1 EPY      -0.736000
     13 C5B          2.8650     4.3010    -1.0790 c3         1 EPY       0.021500
     14 N5B          4.0910     5.0510    -0.6250 n8         1 EPY      -0.999200
     15 C4B          2.7340     2.9670    -0.2950 c3         1 EPY      -0.093400
     16 C3B          3.9140     1.9780    -0.4990 c3         1 EPY      -0.153400
     17 O2B          3.7290     0.4960     1.4070 o          1 EPY      -0.594100
     18 N1B          3.3540    -0.4060    -0.6550 ns         1 EPY      -0.502900
     19 C1C         -1.2350    -1.3090     0.1620 c3         1 EPY       0.058300
     20 C3C         -1.7070    -2.6830     0.7180 c3         1 EPY       0.173600
     21 O2C         -1.7690    -2.6800     2.1550 oh         1 EPY      -0.649000
     22 C2C         -2.1870    -0.1450     0.5200 c3         1 EPY       0.174600
     23 O3C         -3.4630    -0.3950    -0.1010 os         1 EPY      -0.337100
     24 C4C         -4.5300     0.4670     0.0380 ca         1 EPY       0.214100
     25 C9C         -5.7300     0.1280    -0.6020 ca         1 EPY      -0.197000
     26 C8C         -6.8560     0.9620    -0.5020 ca         1 EPY      -0.003500
     27 C7C         -6.7890     2.1570     0.2500 ca         1 EPY      -0.241200
     28 C6C         -5.5780     2.4980     0.8950 ca         1 EPY      -0.003500
     29 C5C         -4.4550     1.6580     0.7890 ca         1 EPY      -0.197000
     30 N8C         -7.9850     3.0500     0.3620 no         1 EPY       0.705200
     31 O8C         -9.0250     2.7120    -0.2190 o          1 EPY      -0.418000
     32 O9C         -7.8820     4.0860     1.0320 o          1 EPY      -0.418000
     33 H3A1         3.3010    -1.9290     0.8170 h1         1 EPY       0.090700
     34 HNA4         3.3480    -4.2570     0.3430 hn         1 EPY       0.341500
     35 H1A1         1.1770    -1.8980    -1.4020 h1         1 EPY       0.070200
     36 H1A2         1.2550    -3.0740    -0.0720 h1         1 EPY       0.070200
     37 H5A1         3.9950    -5.5210    -2.0980 h1         1 EPY       0.035200
     38 H5A2         5.5470    -4.9970    -1.3870 h1         1 EPY       0.035200
     39 H5B1         3.0400     4.0320    -2.1300 h1         1 EPY       0.035700
     40 HN51         3.9350     5.3840     0.3340 hn         1 EPY       0.379000
     41 HN52         4.8710     4.3910    -0.5340 hn         1 EPY       0.379000
     42 H4B1         2.6110     3.1780     0.7750 hc         1 EPY       0.059700
     43 H4B2         1.8100     2.4700    -0.6180 hc         1 EPY       0.059700
     44 H3B1         4.0480     1.8200    -1.5760 hc         1 EPY       0.043700
     45 H3B2         4.8240     2.4140    -0.0710 hc         1 EPY       0.043700
     46 HNB1         3.3670    -0.2000    -1.6470 hn         1 EPY       0.311500
     47 H1C1        -1.2130    -1.3820    -0.9320 h1         1 EPY       0.076700
     48 H3C1        -2.6940    -2.9180     0.2990 h1         1 EPY       0.029700
     49 H3C2        -1.0160    -3.4630     0.3730 h1         1 EPY       0.029700
     50 HOC2        -2.0390    -3.5830     2.4320 ho         1 EPY       0.442000
     51 H2C1        -2.2870    -0.0720     1.6110 h1         1 EPY       0.062700
     52 H2C2        -1.7590     0.7950     0.1480 h1         1 EPY       0.062700
     53 H9C1        -5.7870    -0.7900    -1.1810 ha         1 EPY       0.140000
     54 H8C1        -7.7750     0.6700    -1.0100 ha         1 EPY       0.146000
     55 H6C1        -5.4960     3.4130     1.4810 ha         1 EPY       0.146000
     56 H5C1        -3.5410     1.9490     1.2960 ha         1 EPY       0.140000
     57 C2B          3.6460     0.6370     0.1950 c          1 EPY       0.602100
     58 O6B          0.9110     5.2870    -2.1200 o          1 EPY      -0.736000
@<TRIPOS>BOND
     1     1     5 1   
     2     1    19 1   
     3     2     3 1   
     4     2     5 1   
     5     2    18 1   
     6     2    33 1   
     7     3     4 1   
     8     3     9 2   
     9     4     6 1   
    10     4    34 1   
    11     5    35 1   
    12     5    36 1   
    13     6     7 1   
    14     6    37 1   
    15     6    38 1   
    16     7     8 1   
    17     7    10 1   
    18    11    12 1   
    19    11    13 1   
    20    11    58 1   
    21    13    14 1   
    22    13    15 1   
    23    13    39 1   
    24    14    40 1   
    25    14    41 1   
    26    15    16 1   
    27    15    42 1   
    28    15    43 1   
    29    16    44 1   
    30    16    45 1   
    31    16    57 1   
    32    17    57 2   
    33    18    46 1   
    34    18    57 1   
    35    19    20 1   
    36    19    22 1   
    37    19    47 1   
    38    20    21 1   
    39    20    48 1   
    40    20    49 1   
    41    21    50 1   
    42    22    23 1   
    43    22    51 1   
    44    22    52 1   
    45    23    24 1   
    46    24    25 ar  
    47    24    29 ar  
    48    25    26 ar  
    49    25    53 1   
    50    26    27 ar  
    51    26    54 1   
    52    27    28 ar  
    53    27    30 1   
    54    28    29 ar  
    55    28    55 1   
    56    29    56 1   
    57    30    31 1   
    58    30    32 1   
@<TRIPOS>SUBSTRUCTURE
     1 EPY         1 TEMP              0 ****  ****    0 ROOT
