@<TRIPOS>MOLECULE
EPZ
   72    74     1     0     0
SMALL
No Charge or Current Charge


@<TRIPOS>ATOM
      1 C1          -3.3980     1.7120    -1.8280 c6         1 EPZ       0.423300
      2 O1          -2.5090     1.1350    -2.8020 os         1 EPZ      -0.626400
      3 C2          -3.4530     0.9870    -0.4260 c6         1 EPZ       0.068700
      4 N2          -2.1970     1.1000     0.3410 ns         1 EPZ      -0.472900
      5 C3          -3.9270    -0.4860    -0.6550 c6         1 EPZ       0.119300
      6 O3          -4.0460    -1.2760     0.5670 os         1 EPZ      -0.448000
      7 C4          -5.3190    -0.4590    -1.3500 c6         1 EPZ       0.136300
      8 O4          -5.7900    -1.8060    -1.5430 oh         1 EPZ      -0.753000
      9 C5          -5.2460     0.3580    -2.6770 c6         1 EPZ       0.180300
     10 O5          -4.7200     1.6900    -2.4100 os         1 EPZ      -0.461000
     11 C6          -6.6490     0.5080    -3.3570 c3         1 EPZ       0.165600
     12 O6          -6.6320     1.3160    -4.5500 oh         1 EPZ      -0.687000
     13 C7          -1.8340     2.1500     1.1440 c          1 EPZ       0.640100
     14 O7          -2.5830     3.0900     1.3710 o          1 EPZ      -0.645100
     15 C8          -0.4360     2.0460     1.7380 c3         1 EPZ      -0.186100
     16 PA           0.7710    -0.4140    -1.5000 p5         1 EPZ       1.459800
     17 PB          -0.9160     1.2790    -2.6440 p5         1 EPZ       1.468800
     18 O1A          1.7520     0.7060    -1.4380 o          1 EPZ      -0.855000
     19 O1B         -0.2840     1.1020    -3.9840 o          1 EPZ      -0.842500
     20 C1D          4.8730    -1.5030     0.7370 c5         1 EPZ       0.342700
     21 C1E         -3.1400    -2.4290     2.6300 c          1 EPZ       0.730000
     22 O1E         -2.1770    -2.7480     3.3170 o          1 EPZ      -0.737500
     23 N1U          5.4350    -0.1330     0.9090 n          1 EPZ      -0.312000
     24 O2A          1.1560    -1.4990    -2.4500 o          1 EPZ      -0.855000
     25 O2B         -0.6050     2.5960    -2.0170 o          1 EPZ      -0.842500
     26 C2D          4.3150    -1.9580     2.1310 c5         1 EPZ       0.064300
     27 O2D          5.3050    -2.5490     3.0020 oh         1 EPZ      -0.711000
     28 C2E         -2.8630    -1.8910     1.1760 c3         1 EPZ       0.036300
     29 O2E         -4.2880    -2.4580     3.0600 o          1 EPZ      -0.737500
     30 C2U          6.7100    -0.0290     1.4950 c          1 EPZ       0.620000
     31 O2U          7.3140    -0.9930     1.9390 o          1 EPZ      -0.603000
     32 O3A         -0.7180     0.0490    -1.6880 os         1 EPZ      -0.703800
     33 C3D          3.2640    -2.9990     1.6600 c5         1 EPZ       0.100300
     34 O3D          3.8980    -4.2200     1.2530 oh         1 EPZ      -0.711000
     35 C3E         -2.3710    -3.0320     0.2480 c3         1 EPZ      -0.098100
     36 N3U          7.2380     1.2200     1.5840 ns         1 EPZ      -0.476500
     37 C4D          2.6210    -2.2090     0.4710 c5         1 EPZ       0.155300
     38 O4D          3.7440    -1.5370    -0.1710 os         1 EPZ      -0.412000
     39 C4U          6.6900     2.3890     1.1700 c          1 EPZ       0.587200
     40 O4U          7.2600     3.4570     1.3060 o          1 EPZ      -0.581000
     41 C5D          1.5640    -1.1590     0.9450 c3         1 EPZ       0.210600
     42 O5D          0.5160    -1.0040    -0.0220 os         1 EPZ      -0.556400
     43 C5U          5.3780     2.2320     0.5560 cc         1 EPZ      -0.385200
     44 C6U          4.7740     1.0000     0.4230 cd         1 EPZ       0.025600
     45 H1          -3.1150     2.7640    -1.6550 h2         1 EPZ       0.125700
     46 H2          -4.2320     1.4890     0.1640 h1         1 EPZ       0.082700
     47 HN2         -1.4760     0.4100     0.1490 hn         1 EPZ       0.330500
     48 H3          -3.2220    -0.9810    -1.3360 h1         1 EPZ       0.061700
     49 H4          -6.0150     0.0660    -0.6780 h1         1 EPZ       0.032700
     50 HO4         -5.4810    -2.2860    -0.7360 ho         1 EPZ       0.514000
     51 H5          -4.5820    -0.1580    -3.3860 h1         1 EPZ       0.076700
     52 H6          -7.0250    -0.4950    -3.6010 h1         1 EPZ       0.008200
     53 H6A         -7.3400     0.9450    -2.6250 h1         1 EPZ       0.008200
     54 HO6         -7.5640     1.3920    -4.8550 ho         1 EPZ       0.462000
     55 H8          -0.1950     2.8830     2.4020 hc         1 EPZ       0.055033
     56 H8A         -0.3320     1.0790     2.2440 hc         1 EPZ       0.055033
     57 H8B          0.2900     1.9590     0.9210 hc         1 EPZ       0.055033
     58 H1D          5.6690    -2.1670     0.3730 h2         1 EPZ       0.095700
     59 H2D          3.8220    -1.1140     2.6370 h1         1 EPZ       0.071700
     60 HO2D         6.1570    -2.0630     2.8300 ho         1 EPZ       0.497000
     61 H2E         -2.0510    -1.1650     1.2810 h1         1 EPZ       0.040700
     62 H3D          2.5270    -3.2050     2.4500 h1         1 EPZ       0.054700
     63 HO3D         4.6280    -4.3470     1.9070 ho         1 EPZ       0.499000
     64 H3E         -3.1770    -3.7490     0.0520 hc         1 EPZ       0.012700
     65 H3EA        -2.0030    -2.6470    -0.7090 hc         1 EPZ       0.012700
     66 H3EB        -1.5420    -3.5740     0.7170 hc         1 EPZ       0.012700
     67 H4D          2.1430    -2.8970    -0.2390 h1         1 EPZ       0.101700
     68 H5D          1.1210    -1.5080     1.8870 h1         1 EPZ       0.015200
     69 H5DA         2.0510    -0.1990     1.1550 h1         1 EPZ       0.015200
     70 H5U          4.9160     3.1460     0.2000 ha         1 EPZ       0.260000
     71 H6U          3.8080     0.8330    -0.0510 h4         1 EPZ       0.295000
     72 HN3U         8.1460     1.2830     2.0150 hn         1 EPZ       0.311500
@<TRIPOS>BOND
     1     1     2 1   
     2     1     3 1   
     3     1    10 1   
     4     1    45 1   
     5     2    17 1   
     6     3     4 1   
     7     3     5 1   
     8     3    46 1   
     9     4    13 1   
    10     4    47 1   
    11     5     6 1   
    12     5     7 1   
    13     5    48 1   
    14     6    28 1   
    15     7     8 1   
    16     7     9 1   
    17     7    49 1   
    18     8    50 1   
    19     9    10 1   
    20     9    11 1   
    21     9    51 1   
    22    11    12 1   
    23    11    52 1   
    24    11    53 1   
    25    12    54 1   
    26    13    14 2   
    27    13    15 1   
    28    15    55 1   
    29    15    56 1   
    30    15    57 1   
    31    16    18 1   
    32    16    24 1   
    33    16    32 1   
    34    16    42 1   
    35    17    19 1   
    36    17    25 1   
    37    17    32 1   
    38    20    23 1   
    39    20    26 1   
    40    20    38 1   
    41    20    58 1   
    42    21    22 1   
    43    21    28 1   
    44    21    29 1   
    45    23    30 1   
    46    23    44 1   
    47    26    27 1   
    48    26    33 1   
    49    26    59 1   
    50    27    60 1   
    51    28    35 1   
    52    28    61 1   
    53    30    31 2   
    54    30    36 1   
    55    33    34 1   
    56    33    37 1   
    57    33    62 1   
    58    34    63 1   
    59    35    64 1   
    60    35    65 1   
    61    35    66 1   
    62    36    39 1   
    63    36    72 1   
    64    37    38 1   
    65    37    41 1   
    66    37    67 1   
    67    39    40 2   
    68    39    43 1   
    69    41    42 1   
    70    41    68 1   
    71    41    69 1   
    72    43    44 2   
    73    43    70 1   
    74    44    71 1   
@<TRIPOS>SUBSTRUCTURE
     1 EPZ         1 TEMP              0 ****  ****    0 ROOT
