@<TRIPOS>MOLECULE
EPZ
   72    74     1     0     0
SMALL
bcc


@<TRIPOS>ATOM
      1 C1          -2.6630     1.0510    -1.4360 c6         1 EPZ       0.376900
      2 O1          -1.8970     0.1800    -2.2240 os         1 EPZ      -0.603200
      3 C2          -3.3290     0.2350    -0.3270 c6         1 EPZ       0.068700
      4 N2          -2.3540    -0.4820     0.4460 ns         1 EPZ      -0.539900
      5 C3          -4.3800    -0.7090    -0.9150 c6         1 EPZ       0.096100
      6 O3          -5.0900    -1.3610     0.1050 os         1 EPZ      -0.401600
      7 C4          -5.3640     0.0970    -1.7560 c6         1 EPZ       0.113100
      8 O4          -6.2890    -0.7390    -2.4080 oh         1 EPZ      -0.630800
      9 C5          -4.6020     0.8910    -2.8170 c6         1 EPZ       0.157100
     10 O5          -3.6230     1.7090    -2.2020 os         1 EPZ      -0.414600
     11 C6          -5.5210     1.8040    -3.6030 c3         1 EPZ       0.142400
     12 O6          -4.7850     2.4170    -4.6350 oh         1 EPZ      -0.564800
     13 C7          -2.2230    -0.3940     1.7820 c          1 EPZ       0.707100
     14 O7          -2.8940     0.3550     2.4780 o          1 EPZ      -0.645100
     15 C8          -1.2220    -1.3540     2.3720 c3         1 EPZ      -0.186100
     16 PA           1.1170     1.0950    -0.2760 p5         1 EPZ       1.459800
     17 PB          -0.3820     0.5790    -2.7400 p5         1 EPZ       1.468800
     18 O1A          0.0510     1.8830     0.4180 o          1 EPZ      -0.855000
     19 O1B         -0.0720    -0.3970    -3.8260 o          1 EPZ      -0.842500
     20 C1D          5.3310    -0.9270     1.5690 c5         1 EPZ       0.319500
     21 C1E         -4.8940    -2.9760     1.8950 c          1 EPZ       0.940600
     22 O1E         -4.0970    -3.7910     2.4050 o          1 EPZ      -0.842800
     23 N1U          5.9570    -0.3280     0.3940 n          1 EPZ      -0.379000
     24 O2A          2.3460     1.7900    -0.7840 o          1 EPZ      -0.855000
     25 O2B         -0.2680     2.0560    -2.9200 o          1 EPZ      -0.842500
     26 C2D          5.2050     0.0290     2.7550 c5         1 EPZ       0.041100
     27 O2D          6.3920     0.0390     3.4900 oh         1 EPZ      -0.588800
     28 C2E         -4.6790    -2.6910     0.3970 c3         1 EPZ       0.013100
     29 O2E         -5.8580    -2.4210     2.4500 o          1 EPZ      -0.842800
     30 C2U          7.2580    -0.6700     0.0850 c          1 EPZ       0.829500
     31 O2U          7.9160    -1.4560     0.7350 o          1 EPZ      -0.678500
     32 O3A          0.5020     0.1110    -1.4320 os         1 EPZ      -0.703800
     33 C3D          3.9990    -0.5720     3.4850 c5         1 EPZ       0.077100
     34 O3D          4.3700    -1.7200     4.2010 oh         1 EPZ      -0.588800
     35 C3E         -5.4690    -3.6830    -0.4480 c3         1 EPZ      -0.098100
     36 N3U          7.7630    -0.0490    -1.0270 ns         1 EPZ      -0.610500
     37 C4D          3.1230    -0.9760     2.3080 c5         1 EPZ       0.132100
     38 O4D          4.0270    -1.3120     1.2490 os         1 EPZ      -0.365600
     39 C4U          7.1340     0.8700    -1.8540 c          1 EPZ       0.729700
     40 O4U          7.7230     1.3460    -2.8080 o          1 EPZ      -0.656500
     41 C5D          2.1900     0.1510     1.8990 c3         1 EPZ       0.187400
     42 O5D          1.5810    -0.1730     0.6740 os         1 EPZ      -0.533200
     43 C5U          5.7800     1.1610    -1.4580 cc         1 EPZ      -0.335200
     44 C6U          5.2600     0.5620    -0.3740 cd         1 EPZ       0.075600
     45 H1          -2.0430     1.8300    -0.9890 h2         1 EPZ       0.125700
     46 H2          -3.8300     0.9350     0.3450 h1         1 EPZ       0.082700
     47 HN2         -1.7120    -1.0740    -0.0570 hn         1 EPZ       0.330500
     48 H3          -3.8860    -1.4360    -1.5760 h1         1 EPZ       0.061700
     49 H4          -5.8800     0.8110    -1.0930 h1         1 EPZ       0.032700
     50 HO4         -6.7540    -1.2430    -1.7320 ho         1 EPZ       0.415000
     51 H5          -4.1310     0.1830    -3.5140 h1         1 EPZ       0.076700
     52 H6          -6.3470     1.2030    -3.9990 h1         1 EPZ       0.008200
     53 H6A         -5.9590     2.5440    -2.9190 h1         1 EPZ       0.008200
     54 HO6         -5.3910     2.9530    -5.1540 ho         1 EPZ       0.363000
     55 H8          -0.8340    -0.9670     3.3120 hc         1 EPZ       0.055033
     56 H8A         -1.7320    -2.2990     2.5750 hc         1 EPZ       0.055033
     57 H8B         -0.3890    -1.5540     1.7030 hc         1 EPZ       0.055033
     58 H1D          5.9440    -1.7880     1.8440 h2         1 EPZ       0.095700
     59 H2D          4.9490     1.0340     2.3970 h1         1 EPZ       0.071700
     60 HO2D         6.4070     0.8270     4.0430 ho         1 EPZ       0.398000
     61 H2E         -3.6140    -2.8100     0.1740 h1         1 EPZ       0.040700
     62 H3D          3.5010     0.1650     4.1300 h1         1 EPZ       0.054700
     63 HO3D         5.1890    -1.5230     4.6710 ho         1 EPZ       0.400000
     64 H3E         -6.5400    -3.5850    -0.2600 hc         1 EPZ       0.012700
     65 H3EA        -5.2940    -3.5310    -1.5150 hc         1 EPZ       0.012700
     66 H3EB        -5.1770    -4.7070    -0.2110 hc         1 EPZ       0.012700
     67 H4D          2.5350    -1.8690     2.5400 h1         1 EPZ       0.101700
     68 H5D          1.4430     0.2760     2.6910 h1         1 EPZ       0.015200
     69 H5DA         2.7460     1.0950     1.8350 h1         1 EPZ       0.015200
     70 H5U          5.1820     1.8480    -2.0350 ha         1 EPZ       0.210000
     71 H6U          4.2340     0.7670    -0.0970 h4         1 EPZ       0.245000
     72 HN3U         8.7180    -0.2930    -1.2580 hn         1 EPZ       0.311500
@<TRIPOS>BOND
     1     1     2 1   
     2     1     3 1   
     3     1    10 1   
     4     1    45 1   
     5     2    17 1   
     6     3     4 1   
     7     3     5 1   
     8     3    46 1   
     9     4    13 1   
    10     4    47 1   
    11     5     6 1   
    12     5     7 1   
    13     5    48 1   
    14     6    28 1   
    15     7     8 1   
    16     7     9 1   
    17     7    49 1   
    18     8    50 1   
    19     9    10 1   
    20     9    11 1   
    21     9    51 1   
    22    11    12 1   
    23    11    52 1   
    24    11    53 1   
    25    12    54 1   
    26    13    14 2   
    27    13    15 1   
    28    15    55 1   
    29    15    56 1   
    30    15    57 1   
    31    16    18 1   
    32    16    24 1   
    33    16    32 1   
    34    16    42 1   
    35    17    19 1   
    36    17    25 1   
    37    17    32 1   
    38    20    23 1   
    39    20    26 1   
    40    20    38 1   
    41    20    58 1   
    42    21    22 1   
    43    21    28 1   
    44    21    29 1   
    45    23    30 1   
    46    23    44 1   
    47    26    27 1   
    48    26    33 1   
    49    26    59 1   
    50    27    60 1   
    51    28    35 1   
    52    28    61 1   
    53    30    31 2   
    54    30    36 1   
    55    33    34 1   
    56    33    37 1   
    57    33    62 1   
    58    34    63 1   
    59    35    64 1   
    60    35    65 1   
    61    35    66 1   
    62    36    39 1   
    63    36    72 1   
    64    37    38 1   
    65    37    41 1   
    66    37    67 1   
    67    39    40 2   
    68    39    43 1   
    69    41    42 1   
    70    41    68 1   
    71    41    69 1   
    72    43    44 2   
    73    43    70 1   
    74    44    71 1   
@<TRIPOS>SUBSTRUCTURE
     1 EPZ         1 TEMP              0 ****  ****    0 ROOT
