@<TRIPOS>MOLECULE
EQ2
   28    30     1     0     0
SMALL
bcc


@<TRIPOS>ATOM
      1 C1           2.8120     3.0380     0.0080 c3         1 EQ2      -0.179100
      2 C2           1.3620     2.6560     0.0140 c          1 EQ2       0.506600
      3 O1           0.4710     3.4870     0.0240 o          1 EQ2      -0.599100
      4 C3           1.0280     1.2130     0.0040 ca         1 EQ2       0.265800
      5 N1           2.0300     0.3440    -0.0040 nb         1 EQ2      -0.588000
      6 C4           1.8060    -0.9660    -0.0130 ca         1 EQ2       0.313800
      7 C5           3.0130    -1.9030    -0.0110 c          1 EQ2       0.827100
      8 O2           4.1350    -1.3760     0.0300 o          1 EQ2      -0.806300
      9 O3           2.7500    -3.1220    -0.0470 o          1 EQ2      -0.806300
     10 C6           0.5140    -1.4940    -0.0190 ca         1 EQ2      -0.127300
     11 C7          -0.5560    -0.6200    -0.0090 cp         1 EQ2      -0.108000
     12 C8          -1.9880    -0.7710    -0.0050 cp         1 EQ2      -0.079000
     13 C9          -2.8430    -1.8710    -0.0120 ca         1 EQ2      -0.064000
     14 C10         -4.2080    -1.6490    -0.0020 ca         1 EQ2      -0.183000
     15 C11         -4.7210    -0.3440     0.0160 ca         1 EQ2      -0.112000
     16 C12         -3.8910     0.7630     0.0230 ca         1 EQ2      -0.169000
     17 C13         -2.5190     0.5330     0.0120 ca         1 EQ2      -0.005200
     18 N2          -1.4840     1.4360     0.0150 na         1 EQ2      -0.169300
     19 C14         -0.2990     0.7690     0.0040 ca         1 EQ2      -0.086500
     20 H1           3.3050     2.6540    -0.8850 hc         1 EQ2       0.064700
     21 H2           2.9160     4.1210     0.0400 hc         1 EQ2       0.064700
     22 H3           3.3310     2.5980     0.8600 hc         1 EQ2       0.064700
     23 H5           0.3700    -2.5660    -0.0280 ha         1 EQ2       0.165000
     24 H6          -2.4480    -2.8790    -0.0260 ha         1 EQ2       0.137000
     25 H7          -4.8910    -2.4870    -0.0070 ha         1 EQ2       0.119000
     26 H8          -5.7930    -0.1990     0.0250 ha         1 EQ2       0.114000
     27 H9          -4.2950     1.7670     0.0370 ha         1 EQ2       0.125000
     28 H10         -1.5750     2.4380     0.0260 hn         1 EQ2       0.317700
@<TRIPOS>BOND
     1     1     2 1   
     2     1    20 1   
     3     1    21 1   
     4     1    22 1   
     5     2     3 2   
     6     2     4 1   
     7     4     5 ar  
     8     4    19 ar  
     9     5     6 ar  
    10     6     7 1   
    11     6    10 ar  
    12     7     8 1   
    13     7     9 1   
    14    10    11 ar  
    15    10    23 1   
    16    11    12 1   
    17    11    19 ar  
    18    12    13 ar  
    19    12    17 ar  
    20    13    14 ar  
    21    13    24 1   
    22    14    15 ar  
    23    14    25 1   
    24    15    16 ar  
    25    15    26 1   
    26    16    17 ar  
    27    16    27 1   
    28    17    18 1   
    29    18    19 1   
    30    18    28 1   
@<TRIPOS>SUBSTRUCTURE
     1 EQ2         1 TEMP              0 ****  ****    0 ROOT
