@<TRIPOS>MOLECULE
EQ2
   28    30     1     0     0
SMALL
No Charge or Current Charge


@<TRIPOS>ATOM
      1 C1           2.8500     3.1890     0.0150 c3         1 EQ2      -0.179100
      2 C2           1.3840     2.7400     0.0160 c          1 EQ2       0.506600
      3 O1           0.4960     3.5920     0.0260 o          1 EQ2      -0.599100
      4 C3           1.0760     1.2410     0.0060 ca         1 EQ2       0.200500
      5 N1           2.1000     0.3300    -0.0040 nb         1 EQ2      -0.588000
      6 C4           1.8300    -1.0260    -0.0130 ca         1 EQ2       0.248500
      7 C5           3.0030    -2.0380    -0.0250 c          1 EQ2       0.616500
      8 O2           4.1580    -1.6230    -0.0250 o          1 EQ2      -0.701000
      9 O3           2.7490    -3.2380    -0.0330 o          1 EQ2      -0.701000
     10 C6           0.4960    -1.5180    -0.0130 ca         1 EQ2      -0.044000
     11 C7          -0.5560    -0.5860    -0.0030 cp         1 EQ2      -0.108000
     12 C8          -2.0050    -0.7380     0.0000 cp         1 EQ2      -0.079000
     13 C9          -2.8320    -1.8770    -0.0060 ca         1 EQ2      -0.046000
     14 C10         -4.2330    -1.6840    -0.0000 ca         1 EQ2      -0.165000
     15 C11         -4.7870    -0.3790     0.0110 ca         1 EQ2      -0.094000
     16 C12         -3.9480     0.7570     0.0170 ca         1 EQ2      -0.151000
     17 C13         -2.5690     0.5350     0.0110 ca         1 EQ2      -0.005200
     18 N2          -1.4920     1.4350     0.0150 na         1 EQ2      -0.219600
     19 C14         -0.2520     0.7690     0.0060 ca         1 EQ2      -0.021200
     20 H1           3.3610     2.7370    -0.8430 hc         1 EQ2       0.064700
     21 H2           2.9610     4.2790     0.0230 hc         1 EQ2       0.064700
     22 H3           3.3660     2.7240     0.8630 hc         1 EQ2       0.064700
     23 H5           0.2890    -2.5840    -0.0210 ha         1 EQ2       0.147000
     24 H6          -2.4050    -2.8770    -0.0150 ha         1 EQ2       0.119000
     25 H7          -4.8930    -2.5490    -0.0050 ha         1 EQ2       0.101000
     26 H8          -5.8670    -0.2510     0.0150 ha         1 EQ2       0.096000
     27 H9          -4.3600     1.7640     0.0260 ha         1 EQ2       0.107000
     28 H10         -1.5890     2.4450     0.0230 hn         1 EQ2       0.368000
@<TRIPOS>BOND
     1     1     2 1   
     2     1    20 1   
     3     1    21 1   
     4     1    22 1   
     5     2     3 2   
     6     2     4 1   
     7     4     5 ar  
     8     4    19 ar  
     9     5     6 ar  
    10     6     7 1   
    11     6    10 ar  
    12     7     8 1   
    13     7     9 1   
    14    10    11 ar  
    15    10    23 1   
    16    11    12 1   
    17    11    19 ar  
    18    12    13 ar  
    19    12    17 ar  
    20    13    14 ar  
    21    13    24 1   
    22    14    15 ar  
    23    14    25 1   
    24    15    16 ar  
    25    15    26 1   
    26    16    17 ar  
    27    16    27 1   
    28    17    18 1   
    29    18    19 1   
    30    18    28 1   
@<TRIPOS>SUBSTRUCTURE
     1 EQ2         1 TEMP              0 ****  ****    0 ROOT
