@<TRIPOS>MOLECULE
EQ3
   96    97     1     0     0
SMALL
No Charge or Current Charge


@<TRIPOS>ATOM
      1 C32         48.6830    -7.8360    21.9350 c3         1 EQ3      -0.082100
      2 C1          47.1560    -7.9950    21.6440 c6         1 EQ3       0.004200
      3 C31         46.9880    -9.1860    20.6450 c3         1 EQ3      -0.082100
      4 C2          46.3850    -8.3490    22.9500 c6         1 EQ3      -0.106400
      5 C3          46.3060    -7.1460    23.9080 c6         1 EQ3       0.173300
      6 O3          45.6480    -7.5250    25.1210 oh         1 EQ3      -0.660000
      7 C4          45.5380    -5.9930    23.2270 c6         1 EQ3      -0.043200
      8 C5          45.9490    -5.7410    21.7720 c2         1 EQ3      -0.092400
      9 C33         45.4830    -4.3830    21.2620 c3         1 EQ3      -0.057900
     10 C6          46.6180    -6.6710    21.0270 ce         1 EQ3      -0.086200
     11 C7          46.9910    -6.4570    19.6110 ce         1 EQ3      -0.158000
     12 C8          46.1520    -6.0130    18.6290 cf         1 EQ3      -0.186000
     13 C9          46.4680    -5.8200    17.2100 cf         1 EQ3      -0.059200
     14 C34         47.9420    -5.7690    16.8170 c3         1 EQ3      -0.056900
     15 C10         45.4600    -5.6310    16.3080 ce         1 EQ3      -0.182000
     16 C11         45.5890    -5.4220    14.8570 ce         1 EQ3      -0.168000
     17 C12         44.5330    -5.1810    14.0280 cf         1 EQ3      -0.177000
     18 C13         44.5700    -4.9780    12.5760 cf         1 EQ3      -0.059200
     19 C35         45.9240    -4.6750    11.9400 c3         1 EQ3      -0.056900
     20 C14         43.4090    -5.0040    11.8550 ce         1 EQ3      -0.179000
     21 C15         43.2550    -4.8230    10.4030 ce         1 EQ3      -0.168000
     22 C16         42.0560    -4.8020     9.7610 cf         1 EQ3      -0.174000
     23 C17         41.9010    -4.6220     8.3190 cf         1 EQ3      -0.173000
     24 C18         40.7400    -4.6490     7.5990 ce         1 EQ3      -0.066200
     25 C36         39.3820    -4.9510     8.2290 c3         1 EQ3      -0.054900
     26 C19         40.7770    -4.4460     6.1360 ce         1 EQ3      -0.169000
     27 C20         39.7180    -4.2110     5.3090 cf         1 EQ3      -0.176000
     28 C21         39.8420    -4.0050     3.8670 cf         1 EQ3      -0.170000
     29 C22         38.8310    -3.8230     2.9660 ce         1 EQ3      -0.071200
     30 C37         37.3550    -3.8800     3.3550 c3         1 EQ3      -0.054900
     31 C23         39.1450    -3.6300     1.5370 ce         1 EQ3      -0.166000
     32 C24         38.3000    -3.1870     0.5590 cf         1 EQ3      -0.185000
     33 C25         38.6530    -2.9750    -0.8520 cf         1 EQ3      -0.013200
     34 C26         39.3860    -3.8750    -1.5930 ce         1 EQ3      -0.195400
     35 C38         39.7960    -5.2540    -1.0770 c3         1 EQ3      -0.044900
     36 C27         39.7180    -3.6140    -3.0980 c          1 EQ3       0.573300
     37 O27         40.4870    -4.3000    -3.7930 o          1 EQ3      -0.529100
     38 C28         39.0250    -2.4020    -3.7710 c6         1 EQ3      -0.177400
     39 C29         38.9040    -1.2420    -2.7640 c6         1 EQ3      -0.065400
     40 C30         38.1200    -1.6390    -1.4730 c6         1 EQ3      -0.010800
     41 C40         38.2600    -0.4660    -0.4480 c3         1 EQ3      -0.083100
     42 C39         36.5990    -1.8200    -1.7810 c3         1 EQ3      -0.083100
     43 H1          49.0820    -8.7100    22.4640 hc         1 EQ3       0.035367
     44 H2          49.2650    -7.7250    21.0140 hc         1 EQ3       0.035367
     45 H3          48.8900    -6.9530    22.5510 hc         1 EQ3       0.035367
     46 H4          47.2870   -10.1360    21.1060 hc         1 EQ3       0.035367
     47 H5          45.9440    -9.2900    20.3260 hc         1 EQ3       0.035367
     48 H6          47.5980    -9.0670    19.7420 hc         1 EQ3       0.035367
     49 H7          45.3660    -8.6760    22.7010 hc         1 EQ3       0.048200
     50 H8          46.8670    -9.2000    23.4520 hc         1 EQ3       0.048200
     51 H9          47.3240    -6.8010    24.1370 h1         1 EQ3       0.032700
     52 H10         46.1980    -8.2290    25.5300 ho         1 EQ3       0.442000
     53 H11         45.6790    -5.0830    23.8270 hc         1 EQ3       0.060200
     54 H12         44.4610    -6.2070    23.2480 hc         1 EQ3       0.060200
     55 H13         44.4390    -4.4240    20.9320 hc         1 EQ3       0.043700
     56 H14         45.5530    -3.6120    22.0400 hc         1 EQ3       0.043700
     57 H15         46.0920    -4.0260    20.4240 hc         1 EQ3       0.043700
     58 H16         48.0060    -6.7420    19.3380 ha         1 EQ3       0.173000
     59 H17         45.1190    -5.8110    18.9160 ha         1 EQ3       0.174000
     60 H18         48.3120    -6.7650    16.5440 hc         1 EQ3       0.042367
     61 H19         48.1220    -5.1000    15.9690 hc         1 EQ3       0.042367
     62 H20         48.5710    -5.3870    17.6290 hc         1 EQ3       0.042367
     63 H21         44.4360    -5.6490    16.6860 ha         1 EQ3       0.170000
     64 H22         46.5890    -5.4930    14.4300 ha         1 EQ3       0.173000
     65 H23         43.5420    -5.1520    14.4860 ha         1 EQ3       0.171000
     66 H24         46.4270    -5.5970    11.6240 hc         1 EQ3       0.042700
     67 H25         45.8350    -4.0250    11.0630 hc         1 EQ3       0.042700
     68 H26         46.5930    -4.1460    12.6280 hc         1 EQ3       0.042700
     69 H27         42.4830    -5.1960    12.4000 ha         1 EQ3       0.170000
     70 H28         44.1590    -4.7100     9.8040 ha         1 EQ3       0.171000
     71 H29         41.1540    -4.9150    10.3640 ha         1 EQ3       0.173000
     72 H30         42.8250    -4.4310     7.7690 ha         1 EQ3       0.168000
     73 H31         39.4670    -5.5870     9.1170 hc         1 EQ3       0.042700
     74 H32         38.8700    -4.0290     8.5250 hc         1 EQ3       0.042700
     75 H33         38.7240    -5.4970     7.5430 hc         1 EQ3       0.042700
     76 H34         41.7690    -4.4720     5.6820 ha         1 EQ3       0.169000
     77 H35         38.7200    -4.1460     5.7400 ha         1 EQ3       0.175000
     78 H36         40.8640    -3.9820     3.4820 ha         1 EQ3       0.169000
     79 H37         37.1770    -4.5380     4.2130 hc         1 EQ3       0.042700
     80 H38         36.9750    -2.8850     3.6110 hc         1 EQ3       0.042700
     81 H39         36.7330    -4.2810     2.5470 hc         1 EQ3       0.042700
     82 H40         40.1780    -3.8300     1.2520 ha         1 EQ3       0.175000
     83 H41         37.2860    -2.9050     0.8450 ha         1 EQ3       0.182000
     84 H42         39.0860    -5.6470    -0.3410 hc         1 EQ3       0.047367
     85 H43         39.8410    -5.9950    -1.8840 hc         1 EQ3       0.047367
     86 H44         40.7870    -5.2240    -0.6090 hc         1 EQ3       0.047367
     87 H45         39.5520    -2.1220    -4.6930 hc         1 EQ3       0.070700
     88 H46         38.0140    -2.7230    -4.0470 hc         1 EQ3       0.070700
     89 H47         39.9160    -0.9100    -2.4910 hc         1 EQ3       0.048700
     90 H48         38.4250    -0.3800    -3.2490 hc         1 EQ3       0.048700
     91 H49         37.6310    -0.6020     0.4390 hc         1 EQ3       0.038700
     92 H50         39.2970    -0.3630    -0.1050 hc         1 EQ3       0.038700
     93 H51         37.9670     0.4900    -0.8980 hc         1 EQ3       0.038700
     94 H52         36.0110    -1.9550    -0.8660 hc         1 EQ3       0.038700
     95 H53         36.1900    -0.9460    -2.3010 hc         1 EQ3       0.038700
     96 H54         36.4130    -2.6980    -2.4090 hc         1 EQ3       0.038700
@<TRIPOS>BOND
     1     1     2 1   
     2     1    43 1   
     3     1    44 1   
     4     1    45 1   
     5     2     3 1   
     6     2     4 1   
     7     2    10 1   
     8     3    46 1   
     9     3    47 1   
    10     3    48 1   
    11     4     5 1   
    12     4    49 1   
    13     4    50 1   
    14     5     6 1   
    15     5     7 1   
    16     5    51 1   
    17     6    52 1   
    18     7     8 1   
    19     7    53 1   
    20     7    54 1   
    21     8     9 1   
    22     8    10 2   
    23     9    55 1   
    24     9    56 1   
    25     9    57 1   
    26    10    11 1   
    27    11    12 2   
    28    11    58 1   
    29    12    13 1   
    30    12    59 1   
    31    13    14 1   
    32    13    15 2   
    33    14    60 1   
    34    14    61 1   
    35    14    62 1   
    36    15    16 1   
    37    15    63 1   
    38    16    17 2   
    39    16    64 1   
    40    17    18 1   
    41    17    65 1   
    42    18    19 1   
    43    18    20 2   
    44    19    66 1   
    45    19    67 1   
    46    19    68 1   
    47    20    21 1   
    48    20    69 1   
    49    21    22 2   
    50    21    70 1   
    51    22    23 1   
    52    22    71 1   
    53    23    24 2   
    54    23    72 1   
    55    24    25 1   
    56    24    26 1   
    57    25    73 1   
    58    25    74 1   
    59    25    75 1   
    60    26    27 2   
    61    26    76 1   
    62    27    28 1   
    63    27    77 1   
    64    28    29 2   
    65    28    78 1   
    66    29    30 1   
    67    29    31 1   
    68    30    79 1   
    69    30    80 1   
    70    30    81 1   
    71    31    32 2   
    72    31    82 1   
    73    32    33 1   
    74    32    83 1   
    75    33    34 2   
    76    33    40 1   
    77    34    35 1   
    78    34    36 1   
    79    35    84 1   
    80    35    85 1   
    81    35    86 1   
    82    36    37 2   
    83    36    38 1   
    84    38    39 1   
    85    38    87 1   
    86    38    88 1   
    87    39    40 1   
    88    39    89 1   
    89    39    90 1   
    90    40    41 1   
    91    40    42 1   
    92    41    91 1   
    93    41    92 1   
    94    41    93 1   
    95    42    94 1   
    96    42    95 1   
    97    42    96 1   
@<TRIPOS>SUBSTRUCTURE
     1 EQ3         1 TEMP              0 ****  ****    0 ROOT
