@<TRIPOS>MOLECULE
EQ3
   96    97     1     0     0
SMALL
abcg2


@<TRIPOS>ATOM
      1 C32         48.9160    -6.7660    21.6740 c3         1 EQ3      -0.082100
      2 C1          47.5780    -7.4780    21.4220 c6         1 EQ3       0.004200
      3 C31         47.8230    -8.6460    20.4590 c3         1 EQ3      -0.082100
      4 C2          47.0360    -8.0630    22.7300 c6         1 EQ3      -0.106400
      5 C3          46.4690    -6.9980    23.6480 c6         1 EQ3       0.173300
      6 O3          46.0090    -7.5270    24.8760 oh         1 EQ3      -0.660000
      7 C4          45.2970    -6.3310    22.9630 c6         1 EQ3      -0.043200
      8 C5          45.5660    -5.9560    21.5280 c2         1 EQ3      -0.092400
      9 C33         44.5990    -4.9370    20.9970 c3         1 EQ3      -0.057900
     10 C6          46.5770    -6.4920    20.8180 ce         1 EQ3      -0.086200
     11 C7          46.8460    -6.1430    19.4180 ce         1 EQ3      -0.158000
     12 C8          45.9460    -6.1220    18.4210 cf         1 EQ3      -0.186000
     13 C9          46.2360    -5.7820    17.0380 cf         1 EQ3      -0.059200
     14 C34         47.6410    -5.3980    16.6880 c3         1 EQ3      -0.056900
     15 C10         45.2190    -5.8250    16.1400 ce         1 EQ3      -0.182000
     16 C11         45.2910    -5.5160    14.7400 ce         1 EQ3      -0.168000
     17 C12         44.2230    -5.5750    13.9130 cf         1 EQ3      -0.177000
     18 C13         44.2440    -5.2570    12.5030 cf         1 EQ3      -0.059200
     19 C35         45.5470    -4.8240    11.8990 c3         1 EQ3      -0.056900
     20 C14         43.0840    -5.3570    11.8000 ce         1 EQ3      -0.179000
     21 C15         42.8960    -5.0760    10.4090 ce         1 EQ3      -0.168000
     22 C16         41.7020    -5.1810     9.7770 cf         1 EQ3      -0.174000
     23 C17         41.5450    -4.8750     8.3870 cf         1 EQ3      -0.173000
     24 C18         40.4050    -4.9260     7.6470 ce         1 EQ3      -0.066200
     25 C36         39.0730    -5.3480     8.1890 c3         1 EQ3      -0.054900
     26 C19         40.4910    -4.5430     6.2580 ce         1 EQ3      -0.169000
     27 C20         39.4640    -4.4950     5.3800 cf         1 EQ3      -0.176000
     28 C21         39.6490    -4.0890     4.0140 cf         1 EQ3      -0.170000
     29 C22         38.7030    -3.9790     3.0500 ce         1 EQ3      -0.071200
     30 C37         37.2490    -4.2690     3.2600 c3         1 EQ3      -0.054900
     31 C23         39.1350    -3.5490     1.7300 ce         1 EQ3      -0.166000
     32 C24         38.3380    -3.4060     0.6630 cf         1 EQ3      -0.185000
     33 C25         38.7780    -3.0120    -0.6930 cf         1 EQ3      -0.013200
     34 C26         38.7000    -3.9230    -1.6880 ce         1 EQ3      -0.195400
     35 C38         38.3250    -5.3590    -1.4620 c3         1 EQ3      -0.044900
     36 C27         38.9460    -3.5520    -3.0950 c          1 EQ3       0.573300
     37 O27         38.9160    -4.3940    -3.9750 o          1 EQ3      -0.529100
     38 C28         39.1670    -2.0990    -3.4040 c6         1 EQ3      -0.177400
     39 C29         39.8820    -1.4030    -2.2640 c6         1 EQ3      -0.065400
     40 C30         39.1630    -1.5550    -0.9230 c6         1 EQ3      -0.010800
     41 C40         40.1050    -1.0190     0.1600 c3         1 EQ3      -0.083100
     42 C39         37.8710    -0.7240    -0.8930 c3         1 EQ3      -0.083100
     43 H1          49.6430    -7.4640    22.0960 hc         1 EQ3       0.035367
     44 H2          49.3430    -6.3760    20.7490 hc         1 EQ3       0.035367
     45 H3          48.8120    -5.9300    22.3640 hc         1 EQ3       0.035367
     46 H4          48.4830    -9.3810    20.9250 hc         1 EQ3       0.035367
     47 H5          46.8900    -9.1490    20.1990 hc         1 EQ3       0.035367
     48 H6          48.2980    -8.3230    19.5310 hc         1 EQ3       0.035367
     49 H7          46.2430    -8.7870    22.5080 hc         1 EQ3       0.048200
     50 H8          47.8380    -8.6180    23.2290 hc         1 EQ3       0.048200
     51 H9          47.2400    -6.2370    23.8320 h1         1 EQ3       0.032700
     52 H10         46.7600    -7.9220    25.3310 ho         1 EQ3       0.442000
     53 H11         44.9990    -5.4350    23.5170 hc         1 EQ3       0.060200
     54 H12         44.4290    -7.0030    22.9940 hc         1 EQ3       0.060200
     55 H13         43.6190    -5.3840    20.8050 hc         1 EQ3       0.043700
     56 H14         44.4380    -4.1520    21.7400 hc         1 EQ3       0.043700
     57 H15         44.9300    -4.4670    20.0740 hc         1 EQ3       0.043700
     58 H16         47.8860    -5.9410    19.1780 ha         1 EQ3       0.173000
     59 H17         44.9160    -6.3890    18.6370 ha         1 EQ3       0.174000
     60 H18         48.3350    -6.2130    16.9060 hc         1 EQ3       0.042367
     61 H19         47.7660    -5.1390    15.6400 hc         1 EQ3       0.042367
     62 H20         47.9690    -4.5400    17.2780 hc         1 EQ3       0.042367
     63 H21         44.2390    -6.1180    16.5100 ha         1 EQ3       0.170000
     64 H22         46.2500    -5.2140    14.3340 ha         1 EQ3       0.173000
     65 H23         43.2640    -5.8800    14.3250 ha         1 EQ3       0.171000
     66 H24         46.3100    -5.5950    12.0250 hc         1 EQ3       0.042700
     67 H25         45.4750    -4.6070    10.8370 hc         1 EQ3       0.042700
     68 H26         45.9230    -3.9250    12.3920 hc         1 EQ3       0.042700
     69 H27         42.1980    -5.6780    12.3430 ha         1 EQ3       0.170000
     70 H28         43.7510    -4.7550     9.8230 ha         1 EQ3       0.171000
     71 H29         40.8370    -5.5000    10.3500 ha         1 EQ3       0.173000
     72 H30         42.4500    -4.5570     7.8760 ha         1 EQ3       0.168000
     73 H31         39.1090    -5.6210     9.2400 hc         1 EQ3       0.042700
     74 H32         38.3370    -4.5490     8.0790 hc         1 EQ3       0.042700
     75 H33         38.6880    -6.2090     7.6390 hc         1 EQ3       0.042700
     76 H34         41.4780    -4.2600     5.9010 ha         1 EQ3       0.169000
     77 H35         38.4680    -4.7670     5.7100 ha         1 EQ3       0.175000
     78 H36         40.6700    -3.8430     3.7360 ha         1 EQ3       0.169000
     79 H37         37.0190    -4.5600     4.2820 hc         1 EQ3       0.042700
     80 H38         36.6390    -3.3950     3.0230 hc         1 EQ3       0.042700
     81 H39         36.9120    -5.0750     2.6050 hc         1 EQ3       0.042700
     82 H40         40.1990    -3.3600     1.6210 ha         1 EQ3       0.175000
     83 H41         37.2790    -3.6330     0.7560 ha         1 EQ3       0.182000
     84 H42         38.1990    -5.5870    -0.4070 hc         1 EQ3       0.047367
     85 H43         37.3950    -5.6140    -1.9730 hc         1 EQ3       0.047367
     86 H44         39.0920    -6.0290    -1.8540 hc         1 EQ3       0.047367
     87 H45         39.7210    -2.0080    -4.3390 hc         1 EQ3       0.070700
     88 H46         38.1850    -1.6460    -3.5800 hc         1 EQ3       0.070700
     89 H47         40.8910    -1.8180    -2.1710 hc         1 EQ3       0.048700
     90 H48         40.0050    -0.3400    -2.4860 hc         1 EQ3       0.048700
     91 H49         39.6380    -0.9850     1.1430 hc         1 EQ3       0.038700
     92 H50         41.0170    -1.6140     0.2310 hc         1 EQ3       0.038700
     93 H51         40.3970    -0.0000    -0.1020 hc         1 EQ3       0.038700
     94 H52         37.3730    -0.8130     0.0740 hc         1 EQ3       0.038700
     95 H53         38.1000     0.3320    -1.0520 hc         1 EQ3       0.038700
     96 H54         37.1600    -1.0340    -1.6600 hc         1 EQ3       0.038700
@<TRIPOS>BOND
     1     1     2 1   
     2     1    43 1   
     3     1    44 1   
     4     1    45 1   
     5     2     3 1   
     6     2     4 1   
     7     2    10 1   
     8     3    46 1   
     9     3    47 1   
    10     3    48 1   
    11     4     5 1   
    12     4    49 1   
    13     4    50 1   
    14     5     6 1   
    15     5     7 1   
    16     5    51 1   
    17     6    52 1   
    18     7     8 1   
    19     7    53 1   
    20     7    54 1   
    21     8     9 1   
    22     8    10 2   
    23     9    55 1   
    24     9    56 1   
    25     9    57 1   
    26    10    11 1   
    27    11    12 2   
    28    11    58 1   
    29    12    13 1   
    30    12    59 1   
    31    13    14 1   
    32    13    15 2   
    33    14    60 1   
    34    14    61 1   
    35    14    62 1   
    36    15    16 1   
    37    15    63 1   
    38    16    17 2   
    39    16    64 1   
    40    17    18 1   
    41    17    65 1   
    42    18    19 1   
    43    18    20 2   
    44    19    66 1   
    45    19    67 1   
    46    19    68 1   
    47    20    21 1   
    48    20    69 1   
    49    21    22 2   
    50    21    70 1   
    51    22    23 1   
    52    22    71 1   
    53    23    24 2   
    54    23    72 1   
    55    24    25 1   
    56    24    26 1   
    57    25    73 1   
    58    25    74 1   
    59    25    75 1   
    60    26    27 2   
    61    26    76 1   
    62    27    28 1   
    63    27    77 1   
    64    28    29 2   
    65    28    78 1   
    66    29    30 1   
    67    29    31 1   
    68    30    79 1   
    69    30    80 1   
    70    30    81 1   
    71    31    32 2   
    72    31    82 1   
    73    32    33 1   
    74    32    83 1   
    75    33    34 2   
    76    33    40 1   
    77    34    35 1   
    78    34    36 1   
    79    35    84 1   
    80    35    85 1   
    81    35    86 1   
    82    36    37 2   
    83    36    38 1   
    84    38    39 1   
    85    38    87 1   
    86    38    88 1   
    87    39    40 1   
    88    39    89 1   
    89    39    90 1   
    90    40    41 1   
    91    40    42 1   
    92    41    91 1   
    93    41    92 1   
    94    41    93 1   
    95    42    94 1   
    96    42    95 1   
    97    42    96 1   
@<TRIPOS>SUBSTRUCTURE
     1 EQ3         1 TEMP              0 ****  ****    0 ROOT
