@<TRIPOS>MOLECULE
EQ5
   24    25     1     0     0
SMALL
No Charge or Current Charge


@<TRIPOS>ATOM
      1 C10          1.2560    -0.4550    -0.6800 c3         1 EQ5       0.083600
      2 C01         -1.2020     1.4140    -0.2450 ca         1 EQ5      -0.101000
      3 C02         -1.1880     0.0100    -0.1760 ca         1 EQ5      -0.048200
      4 C03         -2.3290    -0.6940     0.1030 ca         1 EQ5      -0.103800
      5 C04         -3.5600    -0.0650     0.3290 ca         1 EQ5      -0.078000
      6 C05         -3.6010     1.3440     0.2630 ca         1 EQ5      -0.153000
      7 C06         -2.4270     2.0800    -0.0220 ca         1 EQ5      -0.120000
      8 C07         -1.9870    -2.0840     0.1080 cc         1 EQ5      -0.281200
      9 C08         -0.6280    -2.1720    -0.1720 cd         1 EQ5      -0.149100
     10 N09         -0.1210    -0.8650    -0.3530 na         1 EQ5      -0.066700
     11 C11          2.0840    -0.0700     0.5630 c3         1 EQ5      -0.235400
     12 C12          3.4900     0.3310     0.1140 c          1 EQ5       0.722000
     13 O13          4.3330    -0.5470     0.0170 o          1 EQ5      -0.733000
     14 O14          3.6870     1.4980    -0.1840 o          1 EQ5      -0.733000
     15 H101         1.7470    -1.2870    -1.2000 h1         1 EQ5       0.060700
     16 H102         1.2170     0.3910    -1.3770 h1         1 EQ5       0.060700
     17 H011        -0.2990     1.9780    -0.4620 ha         1 EQ5       0.127000
     18 H041        -4.4540    -0.6430     0.5490 ha         1 EQ5       0.096000
     19 H051        -4.5400     1.8660     0.4340 ha         1 EQ5       0.091000
     20 H061        -2.4670     3.1660    -0.0700 ha         1 EQ5       0.097000
     21 H071        -2.6510    -2.9250     0.2950 ha         1 EQ5       0.188000
     22 H081         0.0080    -3.0490    -0.2560 h4         1 EQ5       0.207000
     23 H112         1.5670     0.7810     1.0240 hc         1 EQ5       0.033200
     24 H111         2.1180    -0.9660     1.1950 hc         1 EQ5       0.033200
@<TRIPOS>BOND
     1     1    10 1   
     2     1    11 1   
     3     1    15 1   
     4     1    16 1   
     5     2     3 ar  
     6     2     7 ar  
     7     2    17 1   
     8     3     4 ar  
     9     3    10 1   
    10     4     5 ar  
    11     4     8 1   
    12     5     6 ar  
    13     5    18 1   
    14     6     7 ar  
    15     6    19 1   
    16     7    20 1   
    17     8     9 2   
    18     8    21 1   
    19     9    10 1   
    20     9    22 1   
    21    11    12 1   
    22    11    23 1   
    23    11    24 1   
    24    12    13 1   
    25    12    14 1   
@<TRIPOS>SUBSTRUCTURE
     1 EQ5         1 TEMP              0 ****  ****    0 ROOT
