@<TRIPOS>MOLECULE
EQ5
   24    25     1     0     0
SMALL
bcc


@<TRIPOS>ATOM
      1 C10          1.2280    -0.5400    -0.7200 c3         1 EQ5       0.054300
      2 C01         -1.1960     1.3880    -0.3790 ca         1 EQ5      -0.119000
      3 C02         -1.1720     0.0010    -0.2290 ca         1 EQ5      -0.048200
      4 C03         -2.3200    -0.7320     0.1550 ca         1 EQ5      -0.103800
      5 C04         -3.5170    -0.0450     0.3940 ca         1 EQ5      -0.096000
      6 C05         -3.5410     1.3280     0.2500 ca         1 EQ5      -0.171000
      7 C06         -2.3910     2.0370    -0.1350 ca         1 EQ5      -0.138000
      8 C07         -1.9300    -2.1040     0.2040 cc         1 EQ5      -0.231200
      9 C08         -0.6090    -2.1430    -0.1400 cd         1 EQ5      -0.099100
     10 N09         -0.1470    -0.8850    -0.4080 na         1 EQ5      -0.037400
     11 C11          1.9800     0.0170     0.4800 c3         1 EQ5      -0.235400
     12 C12          3.4480     0.3790     0.1850 c          1 EQ5       0.932600
     13 O13          3.9050     0.0490    -0.9270 o          1 EQ5      -0.838300
     14 O14          4.0610     0.9660     1.0980 o          1 EQ5      -0.838300
     15 H101         1.7140    -1.4410    -1.0900 h1         1 EQ5       0.060700
     16 H102         1.2270     0.1750    -1.5440 h1         1 EQ5       0.060700
     17 H011        -0.3140     1.9420    -0.6760 ha         1 EQ5       0.145000
     18 H041        -4.4090    -0.5820     0.6910 ha         1 EQ5       0.114000
     19 H051        -4.4590     1.8710     0.4370 ha         1 EQ5       0.109000
     20 H061        -2.4410     3.1140    -0.2400 ha         1 EQ5       0.115000
     21 H071        -2.5480    -2.9530     0.4530 ha         1 EQ5       0.138000
     22 H081         0.0540    -2.9910    -0.2220 h4         1 EQ5       0.157000
     23 H112         1.4690     0.9020     0.8700 hc         1 EQ5       0.033200
     24 H111         1.9590    -0.7170     1.2920 hc         1 EQ5       0.033200
@<TRIPOS>BOND
     1     1    10 1   
     2     1    11 1   
     3     1    15 1   
     4     1    16 1   
     5     2     3 ar  
     6     2     7 ar  
     7     2    17 1   
     8     3     4 ar  
     9     3    10 1   
    10     4     5 ar  
    11     4     8 1   
    12     5     6 ar  
    13     5    18 1   
    14     6     7 ar  
    15     6    19 1   
    16     7    20 1   
    17     8     9 2   
    18     8    21 1   
    19     9    10 1   
    20     9    22 1   
    21    11    12 1   
    22    11    23 1   
    23    11    24 1   
    24    12    13 1   
    25    12    14 1   
@<TRIPOS>SUBSTRUCTURE
     1 EQ5         1 TEMP              0 ****  ****    0 ROOT
