@<TRIPOS>MOLECULE
EQ7
   46    48     1     0     0
SMALL
bcc


@<TRIPOS>ATOM
      1 C10          0.7910     2.6080     0.2120 c          1 EQ7       0.636300
      2 C13          1.5740     4.9530    -0.4330 c3         1 EQ7      -0.052700
      3 C15          1.0900     4.9340    -1.8810 c3         1 EQ7      -0.088600
      4 C20         -2.5330    -0.0250     0.0570 ca         1 EQ7       0.110600
      5 C21         -2.7720    -0.7570    -1.1020 ca         1 EQ7      -0.130000
      6 C22         -3.9170    -1.5240    -1.2380 ca         1 EQ7      -0.109000
      7 C26         -3.4820    -0.0600     1.0790 ca         1 EQ7       0.024400
      8 C02          1.3310    -3.0580    -0.0050 ca         1 EQ7      -0.020600
      9 C03          2.5540    -3.6800    -0.0850 ca         1 EQ7      -0.067000
     10 C04          3.7220    -2.9240    -0.0740 ca         1 EQ7      -0.119000
     11 C05          3.6270    -1.5560     0.0210 ca         1 EQ7      -0.072200
     12 C06          2.4070    -0.8920     0.1330 ca         1 EQ7      -0.151600
     13 C07          2.3120     0.5690     0.3540 c          1 EQ7       0.622900
     14 C09          1.0000     1.1580     0.2380 cc         1 EQ7      -0.476400
     15 C12          1.9570     3.5530     0.0460 c3         1 EQ7      -0.158400
     16 C14          2.7750     5.8840    -0.2880 c3         1 EQ7      -0.088600
     17 C16         -0.1230     0.3000     0.2020 cd         1 EQ7       0.493000
     18 C18          1.2500    -1.6630     0.1030 ca         1 EQ7       0.193600
     19 C23         -4.8430    -1.5350    -0.2070 ca         1 EQ7       0.035400
     20 C25         -4.6430    -0.8030     0.9520 ca         1 EQ7      -0.106000
     21 N17          0.0360    -1.0390     0.1880 na         1 EQ7      -0.628400
     22 N19         -1.3770     0.7590     0.1950 nu         1 EQ7      -0.663400
     23 N28          4.8830    -0.8140    -0.0610 no         1 EQ7       0.327200
     24 O08          3.3360     1.1830     0.6290 o          1 EQ7      -0.554100
     25 O11         -0.3410     3.0830     0.3040 o          1 EQ7      -0.614100
     26 O29          5.1110    -0.2430    -1.0960 o          1 EQ7      -0.180500
     27 O30          5.6320    -0.8910     0.8790 o          1 EQ7      -0.180500
     28 CL01        -0.1200    -3.9880    -0.0420 cl         1 EQ7      -0.082400
     29 CL24        -6.2830    -2.4740    -0.3660 cl         1 EQ7      -0.080400
     30 CL27        -3.2060     0.8380     2.5210 cl         1 EQ7      -0.061400
     31 H1           0.7710     5.3390     0.2000 hc         1 EQ7       0.060700
     32 H2           1.8790     4.5710    -2.5450 hc         1 EQ7       0.032867
     33 H3           0.2200     4.2910    -2.0160 hc         1 EQ7       0.032867
     34 H4           0.8140     5.9360    -2.2140 hc         1 EQ7       0.032867
     35 H5          -2.0580    -0.7170    -1.9150 ha         1 EQ7       0.155000
     36 H6          -4.0880    -2.0900    -2.1430 ha         1 EQ7       0.161000
     37 H7           2.6120    -4.7560    -0.1660 ha         1 EQ7       0.163000
     38 H8           4.6800    -3.4160    -0.1620 ha         1 EQ7       0.169000
     39 H10          2.4580     3.6140     1.0190 hc         1 EQ7       0.081200
     40 H11          2.7000     3.1240    -0.6290 hc         1 EQ7       0.081200
     41 H12          2.5290     6.8940    -0.6210 hc         1 EQ7       0.032867
     42 H13          3.1100     5.9480     0.7480 hc         1 EQ7       0.032867
     43 H14          3.6200     5.5360    -0.8880 hc         1 EQ7       0.032867
     44 H15         -5.3710    -0.8180     1.7510 ha         1 EQ7       0.171000
     45 H16         -1.4320     1.7790     0.2970 hn         1 EQ7       0.529800
     46 H9          -0.7860    -1.6240     0.2570 hn         1 EQ7       0.469800
@<TRIPOS>BOND
     1     1    14 1   
     2     1    15 1   
     3     1    25 2   
     4     2     3 1   
     5     2    15 1   
     6     2    16 1   
     7     2    31 1   
     8     3    32 1   
     9     3    33 1   
    10     3    34 1   
    11     4     5 ar  
    12     4     7 ar  
    13     4    22 1   
    14     5     6 ar  
    15     5    35 1   
    16     6    19 ar  
    17     6    36 1   
    18     7    20 ar  
    19     7    30 1   
    20     8     9 ar  
    21     8    18 ar  
    22     8    28 1   
    23     9    10 ar  
    24     9    37 1   
    25    10    11 ar  
    26    10    38 1   
    27    11    12 ar  
    28    11    23 1   
    29    12    13 1   
    30    12    18 ar  
    31    13    14 1   
    32    13    24 2   
    33    14    17 2   
    34    15    39 1   
    35    15    40 1   
    36    16    41 1   
    37    16    42 1   
    38    16    43 1   
    39    17    21 1   
    40    17    22 1   
    41    18    21 1   
    42    19    20 ar  
    43    19    29 1   
    44    20    44 1   
    45    21    46 1   
    46    22    45 1   
    47    23    26 1   
    48    23    27 1   
@<TRIPOS>SUBSTRUCTURE
     1 EQ7         1 TEMP              0 ****  ****    0 ROOT
