@<TRIPOS>MOLECULE
EQ7
   46    48     1     0     0
SMALL
No Charge or Current Charge


@<TRIPOS>ATOM
      1 C10          0.8010     2.5290     0.5880 c          1 EQ7       0.636300
      2 C13          1.5480     4.8560    -0.3840 c3         1 EQ7      -0.052700
      3 C15          0.9550     4.6430    -1.7970 c3         1 EQ7      -0.088600
      4 C20         -2.5360    -0.0860     0.1890 ca         1 EQ7       0.249000
      5 C21         -2.5560    -1.2400    -0.6240 ca         1 EQ7      -0.112000
      6 C22         -3.7740    -1.8560    -0.9620 ca         1 EQ7      -0.091000
      7 C26         -3.7690     0.4590     0.6270 ca         1 EQ7       0.116000
      8 C02          1.4300    -3.0120    -0.0800 ca         1 EQ7       0.071000
      9 C03          2.6340    -3.5780    -0.5250 ca         1 EQ7      -0.049000
     10 C04          3.7950    -2.7930    -0.5980 ca         1 EQ7      -0.101000
     11 C05          3.7600    -1.4320    -0.2230 ca         1 EQ7      -0.072200
     12 C06          2.5340    -0.8720     0.2430 ca         1 EQ7      -0.151600
     13 C07          2.3850     0.5270     0.7090 c          1 EQ7       0.622900
     14 C09          1.0270     1.0580     0.5820 cc         1 EQ7      -0.476400
     15 C12          1.9550     3.5120     0.2850 c3         1 EQ7      -0.158400
     16 C14          2.7390     5.8380    -0.4270 c3         1 EQ7      -0.088600
     17 C16         -0.0350     0.1880     0.5360 cd         1 EQ7       0.493000
     18 C18          1.3790    -1.6500     0.3010 ca         1 EQ7       0.332000
     19 C23         -4.9860    -1.3180    -0.5020 ca         1 EQ7       0.127000
     20 C25         -4.9850    -0.1590     0.2880 ca         1 EQ7      -0.088000
     21 N17          0.1930    -1.1270     0.8090 na         1 EQ7      -0.822000
     22 N19         -1.3260     0.5430     0.5270 nu         1 EQ7      -0.857000
     23 N28          5.0000    -0.6130    -0.3840 no         1 EQ7       0.707200
     24 O08          3.3260     1.1550     1.1700 o          1 EQ7      -0.554100
     25 O11         -0.3120     2.9920     0.8190 o          1 EQ7      -0.614100
     26 O29          4.9400     0.3630    -1.1440 o          1 EQ7      -0.370500
     27 O30          6.0630    -1.1020     0.0240 o          1 EQ7      -0.370500
     28 Cl01        -0.0070    -4.0390     0.0120 cl         1 EQ7      -0.174000
     29 Cl24        -6.5080    -2.0890    -0.9290 cl         1 EQ7      -0.172000
     30 Cl27        -3.8070     1.9210     1.6180 cl         1 EQ7      -0.153000
     31 H1           0.7720     5.3250     0.2360 hc         1 EQ7       0.060700
     32 H2           1.6890     4.1720    -2.4610 hc         1 EQ7       0.032867
     33 H3           0.0660     4.0020    -1.7610 hc         1 EQ7       0.032867
     34 H4           0.6580     5.6010    -2.2390 hc         1 EQ7       0.032867
     35 H5          -1.6320    -1.6510    -1.0180 ha         1 EQ7       0.137000
     36 H6          -3.7800    -2.7450    -1.5880 ha         1 EQ7       0.143000
     37 H7           2.6660    -4.6260    -0.8160 ha         1 EQ7       0.145000
     38 H8           4.7200    -3.2410    -0.9610 ha         1 EQ7       0.151000
     39 H10          2.4630     3.6990     1.2370 hc         1 EQ7       0.081200
     40 H11          2.7130     3.0110    -0.3260 hc         1 EQ7       0.081200
     41 H12          2.4350     6.7990    -0.8590 hc         1 EQ7       0.032867
     42 H13          3.1210     6.0300     0.5840 hc         1 EQ7       0.032867
     43 H14          3.5590     5.4330    -1.0320 hc         1 EQ7       0.032867
     44 H15         -5.9240     0.2620     0.6360 ha         1 EQ7       0.153000
     45 H16         -1.4080     1.5450     0.7500 hn         1 EQ7       0.585000
     46 H9          -0.5770    -1.7240     1.0820 hn         1 EQ7       0.525000
@<TRIPOS>BOND
     1     1    14 1   
     2     1    15 1   
     3     1    25 2   
     4     2     3 1   
     5     2    15 1   
     6     2    16 1   
     7     2    31 1   
     8     3    32 1   
     9     3    33 1   
    10     3    34 1   
    11     4     5 ar  
    12     4     7 ar  
    13     4    22 1   
    14     5     6 ar  
    15     5    35 1   
    16     6    19 ar  
    17     6    36 1   
    18     7    20 ar  
    19     7    30 1   
    20     8     9 ar  
    21     8    18 ar  
    22     8    28 1   
    23     9    10 ar  
    24     9    37 1   
    25    10    11 ar  
    26    10    38 1   
    27    11    12 ar  
    28    11    23 1   
    29    12    13 1   
    30    12    18 ar  
    31    13    14 1   
    32    13    24 2   
    33    14    17 2   
    34    15    39 1   
    35    15    40 1   
    36    16    41 1   
    37    16    42 1   
    38    16    43 1   
    39    17    21 1   
    40    17    22 1   
    41    18    21 1   
    42    19    20 ar  
    43    19    29 1   
    44    20    44 1   
    45    21    46 1   
    46    22    45 1   
    47    23    26 1   
    48    23    27 1   
@<TRIPOS>SUBSTRUCTURE
     1 EQ7         1 TEMP              0 ****  ****    0 ROOT
