@<TRIPOS>MOLECULE
EQ8
   54    57     1     0     0
SMALL
No Charge or Current Charge


@<TRIPOS>ATOM
      1 C04          4.2880    -1.0680     0.9970 ca         1 EQ8       0.043000
      2 C05          3.3480    -0.5150     0.0800 ca         1 EQ8      -0.010000
      3 C07          0.8840    -0.2890    -0.9690 cc         1 EQ8       0.746100
      4 C09          2.5090     1.4550    -1.2620 c          1 EQ8       0.747100
      5 C11          3.4920     0.8230    -0.3370 ca         1 EQ8      -0.217600
      6 C12          4.5660     1.6050     0.1340 ca         1 EQ8       0.116000
      7 C13          5.5150     1.0610     1.0190 ca         1 EQ8      -0.203300
      8 C14          5.3610    -0.2710     1.4500 ca         1 EQ8       0.023000
      9 C15          6.6740     1.9220     1.5320 c3         1 EQ8       0.376300
     10 C20         -1.0250    -1.8250    -0.3270 c6         1 EQ8       0.192800
     11 C21         -2.3390    -2.3520    -0.9830 c6         1 EQ8       0.217300
     12 C23         -2.8370    -0.1580    -1.9140 c6         1 EQ8       0.217300
     13 C24         -1.5100     0.4350    -1.3410 c6         1 EQ8       0.192800
     14 C28         -5.7540    -0.0960    -0.3550 c6         1 EQ8      -0.279700
     15 C29         -6.7180     0.3530     0.7830 c6         1 EQ8      -0.053900
     16 C30         -7.9520     1.0930     0.2110 c6         1 EQ8      -0.066900
     17 C31         -8.6960     0.2210    -0.8300 c6         1 EQ8      -0.075400
     18 C32         -7.7440    -0.2290    -1.9650 c6         1 EQ8      -0.066900
     19 C33         -6.5080    -0.9720    -1.4020 c6         1 EQ8      -0.053900
     20 F16          7.7600     1.1850     1.8580 f          1 EQ8      -0.087000
     21 F17          7.0860     2.8270     0.6160 f          1 EQ8      -0.087000
     22 F18          6.3190     2.6120     2.6380 f          1 EQ8      -0.087000
     23 N02          4.2050    -2.3980     1.4770 nu         1 EQ8      -0.156000
     24 N08          1.2420     0.9070    -1.3850 nd         1 EQ8      -0.744100
     25 N19         -0.4690    -0.6120    -1.0280 nh         1 EQ8      -0.700600
     26 N22         -3.3820    -1.2990    -1.1190 n3         1 EQ8      -0.803500
     27 O03          3.1110    -2.9400     1.7670 o          1 EQ8      -0.147000
     28 O10          2.7570     2.4890    -1.8590 o          1 EQ8      -0.470100
     29 O26         -3.4510     0.0240     1.0960 o          1 EQ8      -0.524500
     30 O27         -4.6690    -2.1990     0.9030 o          1 EQ8      -0.524500
     31 S06          2.0880    -1.5680    -0.6630 ss         1 EQ8       0.133800
     32 S25         -4.2570    -0.9190     0.3180 s6         1 EQ8       1.202100
     33 H121         4.6620     2.6440    -0.1840 ha         1 EQ8       0.193000
     34 H141         6.0770    -0.6890     2.1550 ha         1 EQ8       0.163000
     35 H201        -1.2240    -1.5860     0.7270 h1         1 EQ8       0.086700
     36 H202        -0.3130    -2.6620    -0.3270 h1         1 EQ8       0.086700
     37 H211        -2.0790    -2.7390    -1.9790 h1         1 EQ8       0.076950
     38 H212        -2.7110    -3.2160    -0.4120 h1         1 EQ8       0.076950
     39 H232        -3.5740     0.6480    -2.0270 h1         1 EQ8       0.076950
     40 H231        -2.6200    -0.5080    -2.9330 h1         1 EQ8       0.076950
     41 H242        -1.1390     1.1530    -2.0860 h1         1 EQ8       0.086700
     42 H241        -1.7310     1.0200    -0.4380 h1         1 EQ8       0.086700
     43 H281        -5.3700     0.8020    -0.8510 h1         1 EQ8       0.091700
     44 H292        -7.0510    -0.5200     1.3630 hc         1 EQ8       0.054450
     45 H291        -6.1920     1.0130     1.4880 hc         1 EQ8       0.054450
     46 H302        -8.6350     1.3630     1.0280 hc         1 EQ8       0.046700
     47 H301        -7.6340     2.0360    -0.2550 hc         1 EQ8       0.046700
     48 H311        -9.1250    -0.6620    -0.3350 hc         1 EQ8       0.049200
     49 H312        -9.5400     0.7830    -1.2520 hc         1 EQ8       0.049200
     50 H321        -8.2820    -0.8800    -2.6670 hc         1 EQ8       0.046700
     51 H322        -7.4160     0.6470    -2.5410 hc         1 EQ8       0.046700
     52 H332        -5.8410    -1.2410    -2.2330 hc         1 EQ8       0.054450
     53 H331        -6.8270    -1.9190    -0.9430 hc         1 EQ8       0.054450
     54 H1           5.0450    -2.7900     1.9150 hn         1 EQ8       0.552000
@<TRIPOS>BOND
     1     1     2 ar  
     2     1     8 ar  
     3     1    23 1   
     4     2     5 ar  
     5     2    31 1   
     6     3    24 2   
     7     3    25 1   
     8     3    31 1   
     9     4     5 1   
    10     4    24 1   
    11     4    28 2   
    12     5     6 ar  
    13     6     7 ar  
    14     6    33 1   
    15     7     8 ar  
    16     7     9 1   
    17     8    34 1   
    18     9    20 1   
    19     9    21 1   
    20     9    22 1   
    21    10    11 1   
    22    10    25 1   
    23    10    35 1   
    24    10    36 1   
    25    11    26 1   
    26    11    37 1   
    27    11    38 1   
    28    12    13 1   
    29    12    26 1   
    30    12    39 1   
    31    12    40 1   
    32    13    25 1   
    33    13    41 1   
    34    13    42 1   
    35    14    15 1   
    36    14    19 1   
    37    14    32 1   
    38    14    43 1   
    39    15    16 1   
    40    15    44 1   
    41    15    45 1   
    42    16    17 1   
    43    16    46 1   
    44    16    47 1   
    45    17    18 1   
    46    17    48 1   
    47    17    49 1   
    48    18    19 1   
    49    18    50 1   
    50    18    51 1   
    51    19    52 1   
    52    19    53 1   
    53    23    27 1   
    54    23    54 1   
    55    26    32 1   
    56    29    32 2   
    57    30    32 2   
@<TRIPOS>SUBSTRUCTURE
     1 EQ8         1 TEMP              0 ****  ****    0 ROOT
