@<TRIPOS>MOLECULE
EQ8
   54    57     1     0     0
SMALL
bcc


@<TRIPOS>ATOM
      1 C04          4.1090    -1.4820     0.5830 ca         1 EQ8      -0.095400
      2 C05          3.0670    -0.5370     0.3780 ca         1 EQ8       0.116900
      3 C07          0.6070     0.5740     0.4160 cc         1 EQ8       0.746100
      4 C09          2.4360     1.7700    -0.4710 c          1 EQ8       0.747100
      5 C11          3.4270     0.6930    -0.1700 ca         1 EQ8      -0.217600
      6 C12          4.7570     0.9460    -0.4710 ca         1 EQ8       0.098000
      7 C13          5.7710     0.0110    -0.2510 ca         1 EQ8      -0.203300
      8 C14          5.4510    -1.2070     0.2750 ca         1 EQ8       0.005000
      9 C15          7.1860     0.3760    -0.5960 c3         1 EQ8       0.740200
     10 C20         -1.3880    -0.5450     1.3890 c6         1 EQ8       0.192800
     11 C21         -2.6220    -0.9290     0.5870 c6         1 EQ8       0.217300
     12 C23         -2.7600     1.3400    -0.2870 c6         1 EQ8       0.217300
     13 C24         -1.5240     1.7270     0.5080 c6         1 EQ8       0.192800
     14 C28         -5.9950     0.0730    -0.6500 c6         1 EQ8      -0.168900
     15 C29         -7.4780     0.2330    -0.3180 c6         1 EQ8      -0.053900
     16 C30         -8.3240    -0.0000    -1.5670 c6         1 EQ8      -0.066900
     17 C31         -8.0320    -1.3580    -2.1950 c6         1 EQ8      -0.075400
     18 C32         -6.5480    -1.5080    -2.5080 c6         1 EQ8      -0.066900
     19 C33         -5.6880    -1.2880    -1.2650 c6         1 EQ8      -0.053900
     20 F16          8.0150    -0.6520    -0.4400 f          1 EQ8      -0.208300
     21 F17          7.2750     0.7860    -1.8630 f          1 EQ8      -0.208300
     22 F18          7.6210     1.3730     0.1760 f          1 EQ8      -0.208300
     23 N02          3.8690    -2.7170     1.0930 nu         1 EQ8       0.037600
     24 N08          1.1400     1.6180    -0.1220 nd         1 EQ8      -0.744100
     25 N19         -0.6820     0.5520     0.7350 nh         1 EQ8      -0.700600
     26 N22         -3.4430     0.2430     0.3710 n3         1 EQ8      -0.803500
     27 O03          2.7970    -3.1450     1.4050 o          1 EQ8      -0.147000
     28 O10          2.8200     2.7830    -1.0230 o          1 EQ8      -0.470100
     29 O26         -5.2570     1.7200     1.2730 o          1 EQ8      -0.595300
     30 O27         -5.2580    -0.7410     1.7690 o          1 EQ8      -0.595300
     31 S06          1.4560    -0.9510     0.8060 ss         1 EQ8       0.006900
     32 S25         -5.0130     0.3510     0.8350 s6         1 EQ8       1.232900
     33 H121         4.9950     1.9140    -0.8940 ha         1 EQ8       0.211000
     34 H141         6.1970    -1.9700     0.4620 ha         1 EQ8       0.181000
     35 H201        -1.6750    -0.2200     2.3910 h1         1 EQ8       0.086700
     36 H202        -0.7640    -1.4290     1.5000 h1         1 EQ8       0.086700
     37 H211        -2.3210    -1.3590    -0.3740 h1         1 EQ8       0.076950
     38 H212        -3.1720    -1.6900     1.1350 h1         1 EQ8       0.076950
     39 H232        -3.4090     2.2100    -0.3660 h1         1 EQ8       0.076950
     40 H231        -2.4770     1.0430    -1.3010 h1         1 EQ8       0.076950
     41 H242        -0.9550     2.4800    -0.0260 h1         1 EQ8       0.086700
     42 H241        -1.8150     2.1320     1.4810 h1         1 EQ8       0.086700
     43 H281        -5.6860     0.8670    -1.3400 h1         1 EQ8       0.091700
     44 H292        -7.7600    -0.4910     0.4520 hc         1 EQ8       0.054450
     45 H291        -7.6730     1.2280     0.0840 hc         1 EQ8       0.054450
     46 H302        -9.3800     0.0800    -1.3030 hc         1 EQ8       0.046700
     47 H301        -8.1240     0.7920    -2.2950 hc         1 EQ8       0.046700
     48 H311        -8.3400    -2.1490    -1.5040 hc         1 EQ8       0.049200
     49 H312        -8.6240    -1.4890    -3.1030 hc         1 EQ8       0.049200
     50 H321        -6.3400    -2.4990    -2.9150 hc         1 EQ8       0.046700
     51 H322        -6.2610    -0.7860    -3.2790 hc         1 EQ8       0.046700
     52 H332        -4.6320    -1.3580    -1.5340 hc         1 EQ8       0.054450
     53 H331        -5.8910    -2.0760    -0.5350 hc         1 EQ8       0.054450
     54 H1           4.6860    -3.3390     1.2180 hn         1 EQ8       0.496800
@<TRIPOS>BOND
     1     1     2 ar  
     2     1     8 ar  
     3     1    23 1   
     4     2     5 ar  
     5     2    31 1   
     6     3    24 2   
     7     3    25 1   
     8     3    31 1   
     9     4     5 1   
    10     4    24 1   
    11     4    28 2   
    12     5     6 ar  
    13     6     7 ar  
    14     6    33 1   
    15     7     8 ar  
    16     7     9 1   
    17     8    34 1   
    18     9    20 1   
    19     9    21 1   
    20     9    22 1   
    21    10    11 1   
    22    10    25 1   
    23    10    35 1   
    24    10    36 1   
    25    11    26 1   
    26    11    37 1   
    27    11    38 1   
    28    12    13 1   
    29    12    26 1   
    30    12    39 1   
    31    12    40 1   
    32    13    25 1   
    33    13    41 1   
    34    13    42 1   
    35    14    15 1   
    36    14    19 1   
    37    14    32 1   
    38    14    43 1   
    39    15    16 1   
    40    15    44 1   
    41    15    45 1   
    42    16    17 1   
    43    16    46 1   
    44    16    47 1   
    45    17    18 1   
    46    17    48 1   
    47    17    49 1   
    48    18    19 1   
    49    18    50 1   
    50    18    51 1   
    51    19    52 1   
    52    19    53 1   
    53    23    27 1   
    54    23    54 1   
    55    26    32 1   
    56    29    32 2   
    57    30    32 2   
@<TRIPOS>SUBSTRUCTURE
     1 EQ8         1 TEMP              0 ****  ****    0 ROOT
