@<TRIPOS>MOLECULE
EQ9
   57    60     1     0     0
SMALL
No Charge or Current Charge


@<TRIPOS>ATOM
      1 C15         -5.1470    -0.3530    -1.4450 ca         1 EQ9      -0.190000
      2 C16         -4.8800     0.4530     0.8270 ca         1 EQ9      -0.190000
      3 C17         -6.2670     0.3380     1.0300 ca         1 EQ9      -0.027500
      4 C18         -7.1140    -0.1240    -0.0040 ca         1 EQ9      -0.190500
      5 C13         -2.0250     0.6570     0.3170 c3         1 EQ9       0.165600
      6 C7           6.3400     2.0540    -0.8150 c5         1 EQ9       0.085000
      7 C6           5.2310     0.4740     0.5740 c          1 EQ9       0.613000
      8 N2           6.4050     0.7410    -0.1290 n          1 EQ9      -0.232400
      9 C10          1.8940     1.0680     0.0090 c3         1 EQ9      -0.107400
     10 C9           3.0010     1.5400     0.9720 c3         1 EQ9       0.116000
     11 C8           4.8750     2.5490    -0.5440 c5         1 EQ9       0.081000
     12 C2           9.9830    -0.3790    -0.1820 ca         1 EQ9       0.401900
     13 C1           8.6870    -2.2290     0.0420 ca         1 EQ9       0.612900
     14 N1           9.9030    -1.7180    -0.0480 nb         1 EQ9      -0.757000
     15 C5           7.5010    -1.5020    -0.0110 ca         1 EQ9      -0.264000
     16 C4           7.5630    -0.1130    -0.2190 ca         1 EQ9       0.075000
     17 C3           8.8520     0.4510    -0.2470 ca         1 EQ9      -0.281000
     18 C22        -11.8510    -1.0350    -0.8390 c3         1 EQ9      -0.133400
     19 C11          0.4870     1.0990     0.6450 c3         1 EQ9      -0.071400
     20 C12         -0.6220     0.6250    -0.3190 c3         1 EQ9      -0.082400
     21 C14         -4.3140     0.1060    -0.4160 ca         1 EQ9       0.172100
     22 C19         -6.5330    -0.4690    -1.2470 ca         1 EQ9      -0.027500
     23 C20         -8.5670    -0.2420     0.2160 cc         1 EQ9       0.628500
     24 C21        -10.5560    -0.6440    -0.1950 cd         1 EQ9       0.490300
     25 N3           4.3380     1.5090     0.3510 n          1 EQ9      -0.411800
     26 N5          -9.1560     0.0690     1.3610 nd         1 EQ9      -0.385300
     27 N6          -9.3830    -0.6890    -0.7830 nc         1 EQ9      -0.725000
     28 O1          -2.9620     0.1970    -0.6720 os         1 EQ9      -0.347100
     29 O2         -10.5150    -0.2020     1.0910 os         1 EQ9      -0.093700
     30 H20         -4.7150    -0.6220    -2.4050 ha         1 EQ9       0.125500
     31 H21         -4.2640     0.8120     1.6460 ha         1 EQ9       0.125500
     32 H22         -6.6760     0.6140     2.0010 ha         1 EQ9       0.133000
     33 H19         -2.0420     0.0040     1.2000 h1         1 EQ9       0.037200
     34 H18         -2.2630     1.6820     0.6300 h1         1 EQ9       0.037200
     35 H4           7.0700     2.7560    -0.3920 h1         1 EQ9       0.060200
     36 H5           6.5400     1.9520    -1.8890 h1         1 EQ9       0.060200
     37 H12          1.9010     1.7030    -0.8860 hc         1 EQ9       0.050200
     38 H13          2.1210     0.0460    -0.3200 hc         1 EQ9       0.050200
     39 H10          2.7880     2.5700     1.2870 h1         1 EQ9       0.062200
     40 H11          2.9930     0.9150     1.8740 h1         1 EQ9       0.062200
     41 H7           4.8630     3.5370    -0.0660 h1         1 EQ9       0.053200
     42 H6           4.2930     2.6050    -1.4740 h1         1 EQ9       0.053200
     43 H1          10.9860     0.0460    -0.2250 h4         1 EQ9       0.013100
     44 H3           6.5540    -2.0220     0.0790 ha         1 EQ9       0.152000
     45 H2           8.9960     1.5240    -0.3200 ha         1 EQ9       0.119000
     46 H25        -11.8380    -2.0940    -1.1220 hc         1 EQ9       0.073033
     47 H24        -12.6930    -0.8750    -0.1570 hc         1 EQ9       0.073033
     48 H26        -12.0290    -0.4420    -1.7430 hc         1 EQ9       0.073033
     49 H14          0.4820     0.4640     1.5400 hc         1 EQ9       0.042200
     50 H15          0.2640     2.1220     0.9770 hc         1 EQ9       0.042200
     51 H16         -0.4030    -0.3970    -0.6490 hc         1 EQ9       0.057700
     52 H17         -0.6220     1.2620    -1.2130 hc         1 EQ9       0.057700
     53 H23         -7.1500    -0.8290    -2.0690 ha         1 EQ9       0.133000
     54 H9           9.6320    -3.9700    -0.0210 hn         1 EQ9       0.470500
     55 H8           7.9130    -4.0850    -0.0760 hn         1 EQ9       0.470500
     56 O3           5.0090    -0.4960     1.2860 o          1 EQ9      -0.559000
     57 N4           8.7340    -3.5530     0.1900 nv         1 EQ9      -1.052900
@<TRIPOS>BOND
     1     1    21 ar  
     2     1    22 ar  
     3     1    30 1   
     4     2     3 ar  
     5     2    21 ar  
     6     2    31 1   
     7     3     4 ar  
     8     3    32 1   
     9     4    22 ar  
    10     4    23 1   
    11     5    20 1   
    12     5    28 1   
    13     5    33 1   
    14     5    34 1   
    15     6     8 1   
    16     6    11 1   
    17     6    35 1   
    18     6    36 1   
    19     7     8 1   
    20     7    25 1   
    21     7    56 2   
    22     8    16 1   
    23     9    10 1   
    24     9    19 1   
    25     9    37 1   
    26     9    38 1   
    27    10    25 1   
    28    10    39 1   
    29    10    40 1   
    30    11    25 1   
    31    11    41 1   
    32    11    42 1   
    33    12    14 ar  
    34    12    17 ar  
    35    12    43 1   
    36    13    14 ar  
    37    13    15 ar  
    38    13    57 1   
    39    15    16 ar  
    40    15    44 1   
    41    16    17 ar  
    42    17    45 1   
    43    18    24 1   
    44    18    46 1   
    45    18    47 1   
    46    18    48 1   
    47    19    20 1   
    48    19    49 1   
    49    19    50 1   
    50    20    51 1   
    51    20    52 1   
    52    21    28 1   
    53    22    53 1   
    54    23    26 2   
    55    23    27 1   
    56    24    27 2   
    57    24    29 1   
    58    26    29 1   
    59    54    57 1   
    60    55    57 1   
@<TRIPOS>SUBSTRUCTURE
     1 EQ9         1 TEMP              0 ****  ****    0 ROOT
