@<TRIPOS>MOLECULE
EQ9
   57    60     1     0     0
SMALL
abcg2


@<TRIPOS>ATOM
      1 C15         -4.9610    -0.4990    -1.4440 ca         1 EQ9      -0.190000
      2 C16         -4.7080     0.4110     0.7730 ca         1 EQ9      -0.190000
      3 C17         -6.0820     0.3590     0.9360 ca         1 EQ9      -0.027500
      4 C18         -6.9120    -0.1170    -0.0760 ca         1 EQ9      -0.190500
      5 C13         -1.9190     0.4840     0.3030 c3         1 EQ9       0.165600
      6 C7           6.1890     2.1210    -0.5230 c5         1 EQ9       0.085000
      7 C6           5.0930     0.4480     0.6830 c          1 EQ9       0.613000
      8 N2           6.2180     0.7350    -0.0790 n          1 EQ9      -0.232400
      9 C10          1.9180     0.9830     0.1440 c3         1 EQ9      -0.107400
     10 C9           2.9340     1.5050     1.1550 c3         1 EQ9       0.116000
     11 C8           4.7300     2.5140    -0.3110 c5         1 EQ9       0.081000
     12 C2           9.6270    -0.2840    -0.8880 ca         1 EQ9       0.401900
     13 C1           8.5850    -2.1070    -0.0370 ca         1 EQ9       0.612900
     14 N1           9.6900    -1.5670    -0.5510 nb         1 EQ9      -0.757000
     15 C5           7.3920    -1.3950     0.1460 ca         1 EQ9      -0.264000
     16 C4           7.3490    -0.0500    -0.2060 ca         1 EQ9       0.075000
     17 C3           8.5180     0.5200    -0.7430 ca         1 EQ9      -0.281000
     18 C22        -11.6970    -0.8490    -0.8710 c3         1 EQ9      -0.133400
     19 C11          0.5080     0.9640     0.7220 c3         1 EQ9      -0.071400
     20 C12         -0.5230     0.4600    -0.2810 c3         1 EQ9      -0.082400
     21 C14         -4.1350    -0.0160    -0.4260 ca         1 EQ9       0.172100
     22 C19         -6.3290    -0.5470    -1.2690 ca         1 EQ9      -0.027500
     23 C20         -8.3590    -0.1700     0.0940 cc         1 EQ9       0.628500
     24 C21        -10.3700    -0.5070    -0.3220 cd         1 EQ9       0.490300
     25 N3           4.2870     1.5360     0.6540 n          1 EQ9      -0.411800
     26 N5          -8.9700     0.2160     1.1760 nd         1 EQ9      -0.385300
     27 N6          -9.2090    -0.6320    -0.8730 nc         1 EQ9      -0.725000
     28 O1          -2.8210     0.0020    -0.6860 os         1 EQ9      -0.347100
     29 O2         -10.2930    -0.0050     0.9040 os         1 EQ9      -0.093700
     30 H20         -4.5200    -0.8360    -2.3730 ha         1 EQ9       0.125500
     31 H21         -4.1050     0.7880     1.5880 ha         1 EQ9       0.125500
     32 H22         -6.5050     0.7000     1.8720 ha         1 EQ9       0.133000
     33 H19         -1.9730    -0.1430     1.2000 h1         1 EQ9       0.037200
     34 H18         -2.1880     1.5060     0.5950 h1         1 EQ9       0.037200
     35 H4           6.8620     2.7350     0.0810 h1         1 EQ9       0.060200
     36 H5           6.4850     2.2110    -1.5670 h1         1 EQ9       0.060200
     37 H12          1.9330     1.6090    -0.7530 hc         1 EQ9       0.050200
     38 H13          2.2040    -0.0250    -0.1680 hc         1 EQ9       0.050200
     39 H10          2.6690     2.5190     1.4620 h1         1 EQ9       0.062200
     40 H11          2.9180     0.8890     2.0540 h1         1 EQ9       0.062200
     41 H7           4.6330     3.5280     0.0760 h1         1 EQ9       0.053200
     42 H6           4.1560     2.4500    -1.2410 h1         1 EQ9       0.053200
     43 H1          10.5340     0.1420    -1.3060 h4         1 EQ9       0.013100
     44 H3           6.5330    -1.9010     0.5530 ha         1 EQ9       0.152000
     45 H2           8.5740     1.5560    -1.0410 ha         1 EQ9       0.119000
     46 H25        -12.1630    -1.6410    -0.2830 hc         1 EQ9       0.073033
     47 H24        -12.3600     0.0150    -0.8490 hc         1 EQ9       0.073033
     48 H26        -11.5930    -1.1890    -1.8970 hc         1 EQ9       0.073033
     49 H14          0.4910     0.3320     1.6150 hc         1 EQ9       0.042200
     50 H15          0.2360     1.9720     1.0520 hc         1 EQ9       0.042200
     51 H16         -0.2690    -0.5580    -0.5890 hc         1 EQ9       0.057700
     52 H17         -0.4980     1.0850    -1.1790 hc         1 EQ9       0.057700
     53 H23         -6.9500    -0.9240    -2.0710 ha         1 EQ9       0.133000
     54 H9           9.4110    -3.9540    -0.0510 hn         1 EQ9       0.470500
     55 H8           7.8070    -3.9200     0.4760 hn         1 EQ9       0.470500
     56 O3           4.8710    -0.5860     1.2870 o          1 EQ9      -0.559000
     57 N4           8.6680    -3.4130     0.3570 nv         1 EQ9      -1.052900
@<TRIPOS>BOND
     1     1    21 ar  
     2     1    22 ar  
     3     1    30 1   
     4     2     3 ar  
     5     2    21 ar  
     6     2    31 1   
     7     3     4 ar  
     8     3    32 1   
     9     4    22 ar  
    10     4    23 1   
    11     5    20 1   
    12     5    28 1   
    13     5    33 1   
    14     5    34 1   
    15     6     8 1   
    16     6    11 1   
    17     6    35 1   
    18     6    36 1   
    19     7     8 1   
    20     7    25 1   
    21     7    56 2   
    22     8    16 1   
    23     9    10 1   
    24     9    19 1   
    25     9    37 1   
    26     9    38 1   
    27    10    25 1   
    28    10    39 1   
    29    10    40 1   
    30    11    25 1   
    31    11    41 1   
    32    11    42 1   
    33    12    14 ar  
    34    12    17 ar  
    35    12    43 1   
    36    13    14 ar  
    37    13    15 ar  
    38    13    57 1   
    39    15    16 ar  
    40    15    44 1   
    41    16    17 ar  
    42    17    45 1   
    43    18    24 1   
    44    18    46 1   
    45    18    47 1   
    46    18    48 1   
    47    19    20 1   
    48    19    49 1   
    49    19    50 1   
    50    20    51 1   
    51    20    52 1   
    52    21    28 1   
    53    22    53 1   
    54    23    26 2   
    55    23    27 1   
    56    24    27 2   
    57    24    29 1   
    58    26    29 1   
    59    54    57 1   
    60    55    57 1   
@<TRIPOS>SUBSTRUCTURE
     1 EQ9         1 TEMP              0 ****  ****    0 ROOT
