@<TRIPOS>MOLECULE
EQA
   21    21     1     0     0
SMALL
No Charge or Current Charge


@<TRIPOS>ATOM
      1 C10         -1.6290     1.4900     0.5190 ca         1 EQA      -0.055000
      2 C13         -3.8650     0.0640    -0.4040 ca         1 EQA      -0.179000
      3 C02          3.5430     0.5590    -0.5310 c          1 EQA       0.677200
      4 C04          2.3520    -0.2540     0.0010 ce         1 EQA       0.097900
      5 C06          1.0430     0.1420    -0.0920 cf         1 EQA      -0.456200
      6 C07         -0.1770    -0.5770     0.3830 c          1 EQA       0.598900
      7 C09         -1.4990     0.1170     0.2100 ca         1 EQA      -0.170600
      8 C11         -2.8660     2.1390     0.3660 ca         1 EQA      -0.147000
      9 C12         -3.9860     1.4290    -0.0950 ca         1 EQA      -0.092000
     10 C14         -2.6310    -0.5880    -0.2500 ca         1 EQA       0.202000
     11 F15         -2.5440    -1.8970    -0.5810 f          1 EQA      -0.170000
     12 O01          3.3500     1.6370    -1.0800 o          1 EQA      -0.688000
     13 O03          4.6590     0.0750    -0.3750 o          1 EQA      -0.688000
     14 O05          2.7000    -1.4340     0.5920 oh         1 EQA      -0.526100
     15 O08         -0.1180    -1.6770     0.9160 o          1 EQA      -0.560100
     16 H1          -0.7750     2.0530     0.8910 ha         1 EQA       0.133000
     17 H2          -4.7270    -0.4900    -0.7660 ha         1 EQA       0.117000
     18 H3           0.8480     1.0940    -0.5810 ha         1 EQA       0.200000
     19 H6          -2.9570     3.1960     0.6090 ha         1 EQA       0.107000
     20 H7          -4.9420     1.9340    -0.2140 ha         1 EQA       0.100000
     21 H4           3.6840    -1.4520     0.5140 ho         1 EQA       0.498000
@<TRIPOS>BOND
     1     1     7 ar  
     2     1     8 ar  
     3     1    16 1   
     4     2     9 ar  
     5     2    10 ar  
     6     2    17 1   
     7     3     4 1   
     8     3    12 1   
     9     3    13 1   
    10     4     5 2   
    11     4    14 1   
    12     5     6 1   
    13     5    18 1   
    14     6     7 1   
    15     6    15 2   
    16     7    10 ar  
    17     8     9 ar  
    18     8    19 1   
    19     9    20 1   
    20    10    11 1   
    21    14    21 1   
@<TRIPOS>SUBSTRUCTURE
     1 EQA         1 TEMP              0 ****  ****    0 ROOT
