@<TRIPOS>MOLECULE
EQA
   21    21     1     0     0
SMALL
abcg2


@<TRIPOS>ATOM
      1 C10         -1.6120     1.4880     0.4500 ca         1 EQA      -0.055000
      2 C13         -3.8400     0.0540    -0.3670 ca         1 EQA      -0.179000
      3 C02          3.5010     0.5480    -0.4880 c          1 EQA       0.677200
      4 C04          2.2920    -0.2580     0.0190 ce         1 EQA       0.097900
      5 C06          1.0160     0.1740    -0.1020 cf         1 EQA      -0.456200
      6 C07         -0.1510    -0.5610     0.3390 c          1 EQA       0.598900
      7 C09         -1.4690     0.1320     0.1590 ca         1 EQA      -0.170600
      8 C11         -2.8420     2.1210     0.3550 ca         1 EQA      -0.147000
      9 C12         -3.9550     1.4010    -0.0560 ca         1 EQA      -0.092000
     10 C14         -2.6070    -0.5560    -0.2460 ca         1 EQA       0.202000
     11 F15         -2.5150    -1.8530    -0.5710 f          1 EQA      -0.170000
     12 O01          3.3070     1.6340    -1.0360 o          1 EQA      -0.688000
     13 O03          4.5780    -0.0460    -0.2610 o          1 EQA      -0.688000
     14 O05          2.6550    -1.3940     0.5710 oh         1 EQA      -0.526100
     15 O08         -0.1180    -1.6770     0.8350 o          1 EQA      -0.560100
     16 H1          -0.7470     2.0520     0.7770 ha         1 EQA       0.133000
     17 H2          -4.6960    -0.5180    -0.7010 ha         1 EQA       0.117000
     18 H3           0.8760     1.1290    -0.5870 ha         1 EQA       0.200000
     19 H6          -2.9310     3.1700     0.6000 ha         1 EQA       0.107000
     20 H7          -4.9190     1.8860    -0.1410 ha         1 EQA       0.100000
     21 H4           3.6400    -1.3650     0.4810 ho         1 EQA       0.498000
@<TRIPOS>BOND
     1     1     7 ar  
     2     1     8 ar  
     3     1    16 1   
     4     2     9 ar  
     5     2    10 ar  
     6     2    17 1   
     7     3     4 1   
     8     3    12 1   
     9     3    13 1   
    10     4     5 2   
    11     4    14 1   
    12     5     6 1   
    13     5    18 1   
    14     6     7 1   
    15     6    15 2   
    16     7    10 ar  
    17     8     9 ar  
    18     8    19 1   
    19     9    20 1   
    20    10    11 1   
    21    14    21 1   
@<TRIPOS>SUBSTRUCTURE
     1 EQA         1 TEMP              0 ****  ****    0 ROOT
