@<TRIPOS>MOLECULE
EQB
   71    71     1     0     0
SMALL
abcg2


@<TRIPOS>ATOM
      1 C4          -5.1860     0.3180    -0.3240 c3         1 EQB      -0.234700
      2 C5          -6.3380     1.1450    -0.9260 c3         1 EQB      -0.034700
      3 C6          -5.9120     2.5810    -1.2240 c3         1 EQB      -0.088100
      4 C7          -6.8680     0.4630    -2.1940 c3         1 EQB      -0.074400
      5 C8          -8.1690     1.0520    -2.7240 c3         1 EQB      -0.083100
      6 C15         -1.4010    -2.0830     0.1300 c3         1 EQB      -0.081700
      7 C17         -0.2870    -3.0620     0.4820 c3         1 EQB      -0.085600
      8 C21          2.4610     0.4050     0.3610 c3         1 EQB       0.056700
      9 C22          2.9290     1.5560     1.2800 c3         1 EQB      -0.066700
     10 C24          1.8850     2.6660     1.3180 c3         1 EQB      -0.091100
     11 C1          -5.6700    -1.0800     0.1080 c          1 EQB       0.713000
     12 O3          -6.4940    -1.0830     1.0660 o          1 EQB      -0.716500
     13 C9          -4.5500     0.9950     0.9130 c3         1 EQB       0.134300
     14 O10         -5.4800     1.1890     1.9310 oh         1 EQB      -0.694000
     15 C11         -3.3730     0.1390     1.3960 c          1 EQB       0.577100
     16 O12         -3.4220    -0.5320     2.4140 o          1 EQB      -0.593100
     17 N13         -2.2960     0.1820     0.5920 ns         1 EQB      -0.512900
     18 C14         -1.1550    -0.6860     0.7510 c3         1 EQB       0.049700
     19 C18          0.0470     0.0250     0.1400 c          1 EQB       0.601100
     20 O19         -0.0650     0.7070    -0.8670 o          1 EQB      -0.616100
     21 N20          1.2100    -0.1680     0.7830 ns         1 EQB      -0.497900
     22 C25          3.5090    -0.6900     0.2550 c          1 EQB       0.579100
     23 O26          3.3390    -1.8400     0.5670 o          1 EQB      -0.484000
     24 O27          4.6460    -0.2070    -0.2170 os         1 EQB      -0.445100
     25 C29          6.9670    -0.2550    -0.6430 ca         1 EQB      -0.093300
     26 C30          7.5300     0.5760     0.3230 ca         1 EQB      -0.086000
     27 C31          8.6240     1.3700     0.0150 ca         1 EQB      -0.116000
     28 C32          9.1690     1.3390    -1.2640 ca         1 EQB      -0.103000
     29 C33          8.6150     0.5130    -2.2310 ca         1 EQB      -0.116000
     30 C34          7.5150    -0.2780    -1.9200 ca         1 EQB      -0.086000
     31 H1          -4.4150     0.2080    -1.0940 hc         1 EQB       0.039700
     32 H2          -7.1540     1.1770    -0.1960 hc         1 EQB       0.065700
     33 H3          -6.7060     3.1380    -1.7210 hc         1 EQB       0.018700
     34 H4          -5.6650     3.1330    -0.3170 hc         1 EQB       0.018700
     35 H5          -5.0360     2.6020    -1.8780 hc         1 EQB       0.018700
     36 H6          -6.0960     0.5100    -2.9700 hc         1 EQB       0.047700
     37 H7          -7.0310    -0.6000    -2.0010 hc         1 EQB       0.047700
     38 H8          -8.9520     1.0190    -1.9640 hc         1 EQB       0.017700
     39 H9          -8.0600     2.0910    -3.0390 hc         1 EQB       0.017700
     40 H10         -8.5260     0.4900    -3.5880 hc         1 EQB       0.017700
     41 H11         -2.3210    -2.4350     0.6060 hc         1 EQB       0.102700
     42 H12         -0.1220    -3.1170     1.5600 hc         1 EQB       0.033700
     43 H13         -0.5470    -4.0650     0.1400 hc         1 EQB       0.033700
     44 H14          0.6610    -2.7950     0.0130 hc         1 EQB       0.033700
     45 H15          2.3120     0.8150    -0.6420 h1         1 EQB       0.109700
     46 H16          3.8350     1.9660     0.8260 hc         1 EQB       0.059700
     47 H17          1.6120     2.9970     0.3160 hc         1 EQB       0.038200
     48 H18          0.9750     2.3450     1.8270 hc         1 EQB       0.038200
     49 H19          2.2740     3.5280     1.8610 hc         1 EQB       0.038200
     50 H20          5.9100    -1.6130     0.6420 h1         1 EQB       0.056200
     51 H21          5.5910    -1.8440    -1.0830 h1         1 EQB       0.056200
     52 H23         -4.1450     1.9710     0.6220 h1         1 EQB       0.035700
     53 H24         -6.0480     0.3850     1.8810 ho         1 EQB       0.517000
     54 H25         -2.3340     0.7370    -0.2500 hn         1 EQB       0.326500
     55 H26         -0.9870    -0.8250     1.8220 h1         1 EQB       0.071700
     56 H27         -0.7530    -1.7590    -1.9280 hc         1 EQB       0.033700
     57 H28         -1.9560    -3.0270    -1.7210 hc         1 EQB       0.033700
     58 H29         -2.4470    -1.3460    -1.6310 hc         1 EQB       0.033700
     59 H30          1.2070    -0.7320     1.6190 hn         1 EQB       0.329500
     60 H31          4.0790     0.3410     2.6960 hc         1 EQB       0.038200
     61 H32          3.6010     1.9160     3.2990 hc         1 EQB       0.038200
     62 H33          2.4070     0.6340     3.1860 hc         1 EQB       0.038200
     63 H34          7.1170     0.5980     1.3250 ha         1 EQB       0.115500
     64 H35          9.0560     2.0110     0.7730 ha         1 EQB       0.111500
     65 H36         10.0270     1.9550    -1.5020 ha         1 EQB       0.109000
     66 H37          9.0340     0.4850    -3.2280 ha         1 EQB       0.111500
     67 H38          7.0820    -0.9210    -2.6780 ha         1 EQB       0.115500
     68 OXT         -5.2270    -2.0810    -0.4700 o          1 EQB      -0.716500
     69 C23          3.2710     1.0760     2.6860 c3         1 EQB      -0.091100
     70 C16         -1.6490    -2.0410    -1.3720 c3         1 EQB      -0.085600
     71 C28          5.7740    -1.0960    -0.3090 c3         1 EQB       0.210900
@<TRIPOS>BOND
     1     1     2 1   
     2     1    11 1   
     3     1    13 1   
     4     1    31 1   
     5     2     3 1   
     6     2     4 1   
     7     2    32 1   
     8     3    33 1   
     9     3    34 1   
    10     3    35 1   
    11     4     5 1   
    12     4    36 1   
    13     4    37 1   
    14     5    38 1   
    15     5    39 1   
    16     5    40 1   
    17     6     7 1   
    18     6    18 1   
    19     6    41 1   
    20     6    70 1   
    21     7    42 1   
    22     7    43 1   
    23     7    44 1   
    24     8     9 1   
    25     8    21 1   
    26     8    22 1   
    27     8    45 1   
    28     9    10 1   
    29     9    46 1   
    30     9    69 1   
    31    10    47 1   
    32    10    48 1   
    33    10    49 1   
    34    11    12 1   
    35    11    68 1   
    36    13    14 1   
    37    13    15 1   
    38    13    52 1   
    39    14    53 1   
    40    15    16 2   
    41    15    17 1   
    42    17    18 1   
    43    17    54 1   
    44    18    19 1   
    45    18    55 1   
    46    19    20 2   
    47    19    21 1   
    48    21    59 1   
    49    22    23 2   
    50    22    24 1   
    51    24    71 1   
    52    25    26 ar  
    53    25    30 ar  
    54    25    71 1   
    55    26    27 ar  
    56    26    63 1   
    57    27    28 ar  
    58    27    64 1   
    59    28    29 ar  
    60    28    65 1   
    61    29    30 ar  
    62    29    66 1   
    63    30    67 1   
    64    50    71 1   
    65    51    71 1   
    66    56    70 1   
    67    57    70 1   
    68    58    70 1   
    69    60    69 1   
    70    61    69 1   
    71    62    69 1   
@<TRIPOS>SUBSTRUCTURE
     1 EQB         1 TEMP              0 ****  ****    0 ROOT
