@<TRIPOS>MOLECULE
EQB
   71    71     1     0     0
SMALL
No Charge or Current Charge


@<TRIPOS>ATOM
      1 C4          -5.5640     0.1960    -0.4110 c3         1 EQB      -0.234700
      2 C5          -6.5450     1.1760    -1.1550 c3         1 EQB      -0.034700
      3 C6          -5.7960     2.3730    -1.8040 c3         1 EQB      -0.088100
      4 C7          -7.4210     0.4220    -2.2060 c3         1 EQB      -0.074400
      5 C8          -8.5130     1.2740    -2.8910 c3         1 EQB      -0.083100
      6 C15         -1.1860    -2.0740     0.1260 c3         1 EQB      -0.081700
      7 C17         -0.0750    -3.0570     0.5670 c3         1 EQB      -0.085600
      8 C21          2.6570     0.4390     0.7910 c3         1 EQB       0.056700
      9 C22          2.9830     1.5040     1.8840 c3         1 EQB      -0.066700
     10 C24          2.0220     2.7150     1.8340 c3         1 EQB      -0.091100
     11 C1          -6.3060    -1.0160     0.1940 c          1 EQB       0.713000
     12 O3          -7.0680    -0.8030     1.1290 o          1 EQB      -0.716500
     13 C9          -4.6870     0.8620     0.6930 c3         1 EQB       0.134300
     14 O10         -5.5530     1.2910     1.7650 oh         1 EQB      -0.694000
     15 C11         -3.5430    -0.1010     1.1760 c          1 EQB       0.577100
     16 O12         -3.6940    -0.9500     2.0480 o          1 EQB      -0.593100
     17 N13         -2.3160     0.1110     0.5790 ns         1 EQB      -0.512900
     18 C14         -1.0910    -0.6810     0.8310 c3         1 EQB       0.049700
     19 C18          0.1610     0.1490     0.4090 c          1 EQB       0.601100
     20 O19          0.1050     1.0830    -0.3830 o          1 EQB      -0.616100
     21 N20          1.3460    -0.2190     1.0100 ns         1 EQB      -0.497900
     22 C25          3.7810    -0.6250     0.6570 c          1 EQB       0.579100
     23 O26          3.6620    -1.8000     0.9860 o          1 EQB      -0.484000
     24 O27          4.9040    -0.1040     0.0680 os         1 EQB      -0.445100
     25 C29          7.1470    -0.1750    -0.7780 ca         1 EQB      -0.093300
     26 C30          8.0380     0.5680     0.0230 ca         1 EQB      -0.086000
     27 C31          9.0730     1.3110    -0.5710 ca         1 EQB      -0.116000
     28 C32          9.2230     1.3180    -1.9680 ca         1 EQB      -0.103000
     29 C33          8.3350     0.5820    -2.7720 ca         1 EQB      -0.116000
     30 C34          7.3000    -0.1620    -2.1790 ca         1 EQB      -0.086000
     31 H1          -4.8820    -0.1910    -1.1790 hc         1 EQB       0.039700
     32 H2          -7.2330     1.5930    -0.4070 hc         1 EQB       0.065700
     33 H3          -6.4890     3.0490    -2.3170 hc         1 EQB       0.018700
     34 H4          -5.2820     2.9820    -1.0530 hc         1 EQB       0.018700
     35 H5          -5.0560     2.0230    -2.5330 hc         1 EQB       0.018700
     36 H6          -6.7730    -0.0120    -2.9770 hc         1 EQB       0.047700
     37 H7          -7.9330    -0.4180    -1.7240 hc         1 EQB       0.047700
     38 H8          -9.1270     1.7930    -2.1450 hc         1 EQB       0.017700
     39 H9          -8.0770     2.0180    -3.5670 hc         1 EQB       0.017700
     40 H10         -9.1720     0.6320    -3.4870 hc         1 EQB       0.017700
     41 H11         -2.1310    -2.5290     0.4530 hc         1 EQB       0.102700
     42 H12         -0.0070    -3.1070     1.6600 hc         1 EQB       0.033700
     43 H13         -0.2910    -4.0670     0.1990 hc         1 EQB       0.033700
     44 H14          0.9030    -2.7620     0.1680 hc         1 EQB       0.033700
     45 H15          2.6350     0.9490    -0.1810 h1         1 EQB       0.109700
     46 H16          3.9830     1.8970     1.6580 hc         1 EQB       0.059700
     47 H17          1.9960     3.1490     0.8280 hc         1 EQB       0.038200
     48 H18          1.0020     2.4230     2.1110 hc         1 EQB       0.038200
     49 H19          2.3510     3.4970     2.5300 hc         1 EQB       0.038200
     50 H20          6.3750    -1.3900     0.8230 h1         1 EQB       0.056200
     51 H21          5.7530    -1.8200    -0.7840 h1         1 EQB       0.056200
     52 H23         -4.1730     1.7340     0.2720 h1         1 EQB       0.035700
     53 H24         -6.2510     0.5790     1.8000 ho         1 EQB       0.517000
     54 H25         -2.2620     0.8570    -0.1080 hn         1 EQB       0.326500
     55 H26         -1.0140    -0.8410     1.9150 h1         1 EQB       0.071700
     56 H27         -0.3320    -1.5440    -1.8280 hc         1 EQB       0.033700
     57 H28         -1.3960    -2.9630    -1.8640 hc         1 EQB       0.033700
     58 H29         -2.0970    -1.3430    -1.7350 hc         1 EQB       0.033700
     59 H30          1.3120    -1.0130     1.6390 hn         1 EQB       0.329500
     60 H31          3.7810     0.0910     3.3650 hc         1 EQB       0.038200
     61 H32          3.3470     1.6710     4.0360 hc         1 EQB       0.038200
     62 H33          2.0720     0.5100     3.6190 hc         1 EQB       0.038200
     63 H34          7.9270     0.5700     1.1050 ha         1 EQB       0.115500
     64 H35          9.7580     1.8820     0.0520 ha         1 EQB       0.111500
     65 H36         10.0230     1.8930    -2.4280 ha         1 EQB       0.109000
     66 H37          8.4490     0.5880    -3.8530 ha         1 EQB       0.111500
     67 H38          6.6150    -0.7270    -2.8080 ha         1 EQB       0.115500
     68 OXT         -6.0740    -2.1250    -0.2580 o          1 EQB      -0.716500
     69 C23          3.0480     0.9040     3.3110 c3         1 EQB      -0.091100
     70 C16         -1.2560    -1.9710    -1.4180 c3         1 EQB      -0.085600
     71 C28          6.0260    -0.9780    -0.1330 c3         1 EQB       0.210900
@<TRIPOS>BOND
     1     1     2 1   
     2     1    11 1   
     3     1    13 1   
     4     1    31 1   
     5     2     3 1   
     6     2     4 1   
     7     2    32 1   
     8     3    33 1   
     9     3    34 1   
    10     3    35 1   
    11     4     5 1   
    12     4    36 1   
    13     4    37 1   
    14     5    38 1   
    15     5    39 1   
    16     5    40 1   
    17     6     7 1   
    18     6    18 1   
    19     6    41 1   
    20     6    70 1   
    21     7    42 1   
    22     7    43 1   
    23     7    44 1   
    24     8     9 1   
    25     8    21 1   
    26     8    22 1   
    27     8    45 1   
    28     9    10 1   
    29     9    46 1   
    30     9    69 1   
    31    10    47 1   
    32    10    48 1   
    33    10    49 1   
    34    11    12 1   
    35    11    68 1   
    36    13    14 1   
    37    13    15 1   
    38    13    52 1   
    39    14    53 1   
    40    15    16 2   
    41    15    17 1   
    42    17    18 1   
    43    17    54 1   
    44    18    19 1   
    45    18    55 1   
    46    19    20 2   
    47    19    21 1   
    48    21    59 1   
    49    22    23 2   
    50    22    24 1   
    51    24    71 1   
    52    25    26 ar  
    53    25    30 ar  
    54    25    71 1   
    55    26    27 ar  
    56    26    63 1   
    57    27    28 ar  
    58    27    64 1   
    59    28    29 ar  
    60    28    65 1   
    61    29    30 ar  
    62    29    66 1   
    63    30    67 1   
    64    50    71 1   
    65    51    71 1   
    66    56    70 1   
    67    57    70 1   
    68    58    70 1   
    69    60    69 1   
    70    61    69 1   
    71    62    69 1   
@<TRIPOS>SUBSTRUCTURE
     1 EQB         1 TEMP              0 ****  ****    0 ROOT
