@<TRIPOS>MOLECULE
EQC
   51    53     1     0     0
SMALL
No Charge or Current Charge


@<TRIPOS>ATOM
      1 C4          25.0650    79.9270    29.0190 c          1 EQC       0.655100
      2 C14         25.8620    75.0380    28.9080 ca         1 EQC      -0.103000
      3 C5          23.7710    77.2090    26.6620 c3         1 EQC      -0.017100
      4 C6          25.4540    77.4460    29.6230 c3         1 EQC      -0.010100
      5 C11         23.4370    77.4900    22.3320 ca         1 EQC       0.114100
      6 C7          25.0000    75.9970    29.4760 ca         1 EQC      -0.086300
      7 C8          23.6490    77.3020    25.1470 ca         1 EQC      -0.086300
      8 C9          24.7430    76.9580    24.3310 ca         1 EQC      -0.168000
      9 C10         24.6450    77.0490    22.9230 ca         1 EQC       0.115100
     10 C12         22.3410    77.8340    23.1580 ca         1 EQC      -0.170000
     11 C13         22.4520    77.7380    24.5540 ca         1 EQC      -0.107000
     12 C3          24.6040    78.4740    28.8250 c5         1 EQC      -0.176700
     13 C1          24.0630    79.7800    26.9520 c5         1 EQC       0.156600
     14 C15         25.4400    73.7070    28.7570 ca         1 EQC      -0.131000
     15 C16         24.1560    73.3270    29.1740 ca         1 EQC       0.122100
     16 C17         23.2830    74.2730    29.7500 ca         1 EQC       0.050100
     17 C18         23.7130    75.6110    29.9020 ca         1 EQC      -0.151000
     18 C2          24.6130    78.3590    27.2730 c5         1 EQC      -0.092700
     19 C20         22.1770    78.0100    20.2650 c3         1 EQC       0.144900
     20 C21         21.0590    74.7410    30.7270 c3         1 EQC       0.156900
     21 O1          24.6950    80.6490    27.9190 os         1 EQC      -0.423100
     22 O2          25.7070    76.7180    22.0960 os         1 EQC      -0.321100
     23 O4          22.0260    73.8470    30.1450 os         1 EQC      -0.367100
     24 O5          23.7460    72.0330    29.0250 oh         1 EQC      -0.534100
     25 O6          25.7720    80.3790    29.9070 o          1 EQC      -0.493000
     26 H1          26.8570    75.3240    28.5750 ha         1 EQC       0.118000
     27 H2          22.7730    77.1980    27.1190 hc         1 EQC       0.054700
     28 H3          24.2190    76.2430    26.9180 hc         1 EQC       0.054700
     29 H4          26.5060    77.5410    29.3260 hc         1 EQC       0.063700
     30 H5          25.4300    77.7090    30.6880 hc         1 EQC       0.063700
     31 H6          25.6600    76.6230    24.8080 ha         1 EQC       0.125000
     32 H7          21.4010    78.1760    22.7360 ha         1 EQC       0.119000
     33 H8          21.6010    78.0090    25.1770 ha         1 EQC       0.110000
     34 H9          23.5650    78.4270    29.1680 hc         1 EQC       0.081700
     35 H10         24.2980    80.1130    25.9320 h1         1 EQC       0.065200
     36 H11         22.9740    79.8300    27.0930 h1         1 EQC       0.065200
     37 H12         26.1070    72.9710    28.3140 ha         1 EQC       0.129000
     38 H13         23.0610    76.3580    30.3450 ha         1 EQC       0.119000
     39 H14         27.6640    76.0590    21.7790 h1         1 EQC       0.041367
     40 H15         27.4290    77.0240    23.2510 h1         1 EQC       0.041367
     41 H16         26.8500    75.3370    23.1830 h1         1 EQC       0.041367
     42 H17         25.6360    78.2570    26.8920 hc         1 EQC       0.074700
     43 H18         22.3400    77.9980    19.1800 h1         1 EQC       0.039700
     44 H19         21.3310    77.3480    20.4880 h1         1 EQC       0.039700
     45 H20         21.9120    79.0340    20.5580 h1         1 EQC       0.039700
     46 H21         20.1330    74.2010    30.9610 h1         1 EQC       0.043033
     47 H22         21.4420    75.1780    31.6580 h1         1 EQC       0.043033
     48 H23         20.8110    75.5540    30.0320 h1         1 EQC       0.043033
     49 H24         22.8300    71.9910    29.3790 ho         1 EQC       0.483000
     50 O3          23.3630    77.5720    20.9510 os         1 EQC      -0.320100
     51 C19         26.9720    76.2630    22.6060 c3         1 EQC       0.142900
@<TRIPOS>BOND
     1     1    12 1   
     2     1    21 1   
     3     1    25 2   
     4     2     6 ar  
     5     2    14 ar  
     6     2    26 1   
     7     3     7 1   
     8     3    18 1   
     9     3    27 1   
    10     3    28 1   
    11     4     6 1   
    12     4    12 1   
    13     4    29 1   
    14     4    30 1   
    15     5     9 ar  
    16     5    10 ar  
    17     5    50 1   
    18     6    17 ar  
    19     7     8 ar  
    20     7    11 ar  
    21     8     9 ar  
    22     8    31 1   
    23     9    22 1   
    24    10    11 ar  
    25    10    32 1   
    26    11    33 1   
    27    12    18 1   
    28    12    34 1   
    29    13    18 1   
    30    13    21 1   
    31    13    35 1   
    32    13    36 1   
    33    14    15 ar  
    34    14    37 1   
    35    15    16 ar  
    36    15    24 1   
    37    16    17 ar  
    38    16    23 1   
    39    17    38 1   
    40    18    42 1   
    41    19    43 1   
    42    19    44 1   
    43    19    45 1   
    44    19    50 1   
    45    20    23 1   
    46    20    46 1   
    47    20    47 1   
    48    20    48 1   
    49    22    51 1   
    50    24    49 1   
    51    39    51 1   
    52    40    51 1   
    53    41    51 1   
@<TRIPOS>SUBSTRUCTURE
     1 EQC         1 TEMP              0 ****  ****    0 ROOT
