@<TRIPOS>MOLECULE
EQC
   51    53     1     0     0
SMALL
abcg2


@<TRIPOS>ATOM
      1 C4          24.6050    80.1630    29.2800 c          1 EQC       0.655100
      2 C14         25.9740    75.7950    28.1870 ca         1 EQC      -0.103000
      3 C5          23.1290    77.7780    26.8570 c3         1 EQC      -0.017100
      4 C6          25.3110    77.7750    29.5850 c3         1 EQC      -0.010100
      5 C11         23.5380    77.2930    22.5930 ca         1 EQC       0.114100
      6 C7          25.1330    76.3540    29.1340 ca         1 EQC      -0.086300
      7 C8          23.2390    77.6180    25.3660 ca         1 EQC      -0.086300
      8 C9          24.1080    76.6510    24.8490 ca         1 EQC      -0.168000
      9 C10         24.2640    76.4760    23.4860 ca         1 EQC       0.115100
     10 C12         22.6770    78.2490    23.1040 ca         1 EQC      -0.170000
     11 C13         22.5280    78.4080    24.4830 ca         1 EQC      -0.107000
     12 C3          24.2790    78.7220    28.9600 c5         1 EQC      -0.176700
     13 C1          23.9500    80.1750    27.0930 c5         1 EQC       0.156600
     14 C15         25.7580    74.5030    27.7130 ca         1 EQC      -0.131000
     15 C16         24.6930    73.7560    28.1780 ca         1 EQC       0.122100
     16 C17         23.8390    74.3100    29.1490 ca         1 EQC       0.050100
     17 C18         24.0650    75.5930    29.6180 ca         1 EQC      -0.151000
     18 C2          24.2020    78.7040    27.4330 c5         1 EQC      -0.092700
     19 C20         23.0290    77.8320    20.3460 c3         1 EQC       0.144900
     20 C21         21.8740    73.9950    30.4490 c3         1 EQC       0.156900
     21 O1          24.4470    80.9310    28.2050 os         1 EQC      -0.423100
     22 O2          25.0700    75.5590    22.9170 os         1 EQC      -0.321100
     23 O4          22.8380    73.4950    29.5450 os         1 EQC      -0.367100
     24 O5          24.4940    72.5100    27.6990 oh         1 EQC      -0.534100
     25 O6          24.9760    80.6170    30.3290 o          1 EQC      -0.493000
     26 H1          26.8100    76.3660    27.8000 ha         1 EQC       0.118000
     27 H2          22.1440    78.1720    27.1260 hc         1 EQC       0.054700
     28 H3          23.2120    76.7990    27.3300 hc         1 EQC       0.054700
     29 H4          26.3140    78.1160    29.3140 hc         1 EQC       0.063700
     30 H5          25.2380    77.8450    30.6730 hc         1 EQC       0.063700
     31 H6          24.6570    76.0280    25.5460 ha         1 EQC       0.125000
     32 H7          22.1050    78.8840    22.4410 ha         1 EQC       0.119000
     33 H8          21.8420    79.1590    24.8550 ha         1 EQC       0.110000
     34 H9          23.2890    78.5100    29.3870 hc         1 EQC       0.081700
     35 H10         24.4670    80.5110    26.1960 h1         1 EQC       0.065200
     36 H11         22.8840    80.3870    26.9810 h1         1 EQC       0.065200
     37 H12         26.4190    74.0760    26.9690 ha         1 EQC       0.129000
     38 H13         23.4070    76.0300    30.3600 ha         1 EQC       0.119000
     39 H14         26.3760    74.0420    23.1190 h1         1 EQC       0.041367
     40 H15         26.4940    75.2520    24.4100 h1         1 EQC       0.041367
     41 H16         25.1480    74.0930    24.3980 h1         1 EQC       0.041367
     42 H17         25.1800    78.4100    27.0350 hc         1 EQC       0.074700
     43 H18         23.3360    77.4910    19.3600 h1         1 EQC       0.039700
     44 H19         21.9480    77.6960    20.4450 h1         1 EQC       0.039700
     45 H20         23.2570    78.8980    20.4360 h1         1 EQC       0.039700
     46 H21         21.1480    73.2010    30.6000 h1         1 EQC       0.043033
     47 H22         22.3190    74.2550    31.4130 h1         1 EQC       0.043033
     48 H23         21.3620    74.8730    30.0480 h1         1 EQC       0.043033
     49 H24         23.7160    72.1180    28.1140 ho         1 EQC       0.483000
     50 O3          23.7470    77.0570    21.2820 os         1 EQC      -0.320100
     51 C19         25.8020    74.7010    23.7660 c3         1 EQC       0.142900
@<TRIPOS>BOND
     1     1    12 1   
     2     1    21 1   
     3     1    25 2   
     4     2     6 ar  
     5     2    14 ar  
     6     2    26 1   
     7     3     7 1   
     8     3    18 1   
     9     3    27 1   
    10     3    28 1   
    11     4     6 1   
    12     4    12 1   
    13     4    29 1   
    14     4    30 1   
    15     5     9 ar  
    16     5    10 ar  
    17     5    50 1   
    18     6    17 ar  
    19     7     8 ar  
    20     7    11 ar  
    21     8     9 ar  
    22     8    31 1   
    23     9    22 1   
    24    10    11 ar  
    25    10    32 1   
    26    11    33 1   
    27    12    18 1   
    28    12    34 1   
    29    13    18 1   
    30    13    21 1   
    31    13    35 1   
    32    13    36 1   
    33    14    15 ar  
    34    14    37 1   
    35    15    16 ar  
    36    15    24 1   
    37    16    17 ar  
    38    16    23 1   
    39    17    38 1   
    40    18    42 1   
    41    19    43 1   
    42    19    44 1   
    43    19    45 1   
    44    19    50 1   
    45    20    23 1   
    46    20    46 1   
    47    20    47 1   
    48    20    48 1   
    49    22    51 1   
    50    24    49 1   
    51    39    51 1   
    52    40    51 1   
    53    41    51 1   
@<TRIPOS>SUBSTRUCTURE
     1 EQC         1 TEMP              0 ****  ****    0 ROOT
