@<TRIPOS>MOLECULE
EQD
   40    42     1     0     0
SMALL
bcc


@<TRIPOS>ATOM
      1 CAB          1.9610    -1.1860    -0.5660 ca         1 EQD      -0.050100
      2 CAC          1.8850     0.1830    -0.3160 ca         1 EQD       0.018700
      3 CAD          0.7300     1.0000    -0.8140 c3         1 EQD      -0.039100
      4 CAE         -0.4160     1.0320     0.2130 c3         1 EQD      -0.098700
      5 CAF         -1.5630     1.8500    -0.2690 cc         1 EQD       0.407800
      6 CAH         -2.8320     3.5010    -0.7520 cd         1 EQD       0.298200
      7 CAI         -3.4160     2.4020    -1.3080 cc         1 EQD      -0.268600
      8 CAL         -3.4340    -0.7880    -0.1170 ca         1 EQD      -0.117300
      9 CAM         -4.6090    -0.3500     0.4900 ca         1 EQD      -0.109500
     10 CAN         -5.1440    -1.0400     1.5670 ca         1 EQD      -0.128500
     11 CAO         -4.5140    -2.1810     2.0500 ca         1 EQD      -0.117000
     12 CAP         -3.3450    -2.6250     1.4490 ca         1 EQD      -0.128500
     13 CAQ         -2.8080    -1.9290     0.3720 ca         1 EQD      -0.109500
     14 CAR          2.8980     0.7560     0.4490 ca         1 EQD      -0.050100
     15 CAT          3.9650     0.0010     0.9350 ca         1 EQD       0.196100
     16 CAV          4.0160    -1.3580     0.6600 ca         1 EQD      -0.322000
     17 CAW          3.0160    -1.9620    -0.0880 ca         1 EQD       0.196100
     18 NAG         -1.6800     3.1460    -0.1110 nd         1 EQD      -0.673000
     19 NAJ         -2.5930     1.3530    -0.9990 na         1 EQD      -0.182900
     20 OAU          4.9020     0.6260     1.6560 oh         1 EQD      -0.469100
     21 OAX          3.0180    -3.2690    -0.3730 oh         1 EQD      -0.469100
     22 CLB          0.7340    -1.9920    -1.4870 cl         1 EQD      -0.083400
     23 CLR          2.8660     2.4420     0.8420 cl         1 EQD      -0.083400
     24 H1           1.0520     2.0210    -1.0160 hc         1 EQD       0.071200
     25 H2           0.3720     0.5980    -1.7620 hc         1 EQD       0.071200
     26 H3          -0.7320     0.0140     0.4500 hc         1 EQD       0.068700
     27 H4          -0.0550     1.4700     1.1450 hc         1 EQD       0.068700
     28 H5          -3.1790     4.5230    -0.7810 h4         1 EQD       0.037100
     29 H6          -4.3170     2.2710    -1.8850 h4         1 EQD       0.171000
     30 H7          -1.9440    -0.5200    -1.6420 h1         1 EQD       0.066700
     31 H8          -3.5550    -0.0640    -2.1360 h1         1 EQD       0.066700
     32 H9          -5.1140     0.5350     0.1220 ha         1 EQD       0.135000
     33 H10         -6.0580    -0.6890     2.0290 ha         1 EQD       0.133500
     34 H11         -4.9340    -2.7210     2.8890 ha         1 EQD       0.133000
     35 H12         -2.8450    -3.5110     1.8190 ha         1 EQD       0.133500
     36 H13         -1.8920    -2.2800    -0.0880 ha         1 EQD       0.135000
     37 H14          4.8400    -1.9540     1.0390 ha         1 EQD       0.138000
     38 H15          5.5890     0.0050     1.9260 ho         1 EQD       0.432000
     39 H16          3.7870    -3.7000     0.0170 ho         1 EQD       0.432000
     40 CAK         -2.8600    -0.0420    -1.2960 c3         1 EQD       0.089600
@<TRIPOS>BOND
     1     1     2 ar  
     2     1    17 ar  
     3     1    22 1   
     4     2     3 1   
     5     2    14 ar  
     6     3     4 1   
     7     3    24 1   
     8     3    25 1   
     9     4     5 1   
    10     4    26 1   
    11     4    27 1   
    12     5    18 2   
    13     5    19 1   
    14     6     7 2   
    15     6    18 1   
    16     6    28 1   
    17     7    19 1   
    18     7    29 1   
    19     8     9 ar  
    20     8    13 ar  
    21     8    40 1   
    22     9    10 ar  
    23     9    32 1   
    24    10    11 ar  
    25    10    33 1   
    26    11    12 ar  
    27    11    34 1   
    28    12    13 ar  
    29    12    35 1   
    30    13    36 1   
    31    14    15 ar  
    32    14    23 1   
    33    15    16 ar  
    34    15    20 1   
    35    16    17 ar  
    36    16    37 1   
    37    17    21 1   
    38    19    40 1   
    39    20    38 1   
    40    21    39 1   
    41    30    40 1   
    42    31    40 1   
@<TRIPOS>SUBSTRUCTURE
     1 EQD         1 TEMP              0 ****  ****    0 ROOT
