@<TRIPOS>MOLECULE
EQD
   40    42     1     0     0
SMALL
No Charge or Current Charge


@<TRIPOS>ATOM
      1 CAB          1.8490    -1.2350    -0.3730 ca         1 EQD       0.041500
      2 CAC          1.8360     0.1780    -0.2480 ca         1 EQD       0.018700
      3 CAD          0.6850     1.0040    -0.8390 c3         1 EQD      -0.039100
      4 CAE         -0.4700     1.2000     0.1690 c3         1 EQD      -0.098700
      5 CAF         -1.6240     1.9840    -0.4000 cc         1 EQD       0.407800
      6 CAH         -2.9220     3.6160    -0.9500 cd         1 EQD       0.232900
      7 CAI         -3.5290     2.4850    -1.4290 cc         1 EQD      -0.236000
      8 CAL         -3.4030    -0.8130    -0.1810 ca         1 EQD      -0.117300
      9 CAM         -4.1850    -0.2450     0.8490 ca         1 EQD      -0.091500
     10 CAN         -4.6010    -1.0280     1.9390 ca         1 EQD      -0.110500
     11 CAO         -4.2440    -2.3850     2.0100 ca         1 EQD      -0.099000
     12 CAP         -3.4740    -2.9590     0.9860 ca         1 EQD      -0.110500
     13 CAQ         -3.0570    -2.1770    -0.1050 ca         1 EQD      -0.091500
     14 CAR          2.8950     0.8110     0.4520 ca         1 EQD       0.041500
     15 CAT          3.9490     0.0420     0.9940 ca         1 EQD       0.196100
     16 CAV          3.9570    -1.3510     0.8530 ca         1 EQD      -0.304000
     17 CAW          2.9110    -1.9880     0.1760 ca         1 EQD       0.196100
     18 NAG         -1.7400     3.3000    -0.3140 nd         1 EQD      -0.673000
     19 NAJ         -2.6980     1.4410    -1.0820 na         1 EQD      -0.161500
     20 OAU          4.9760     0.6390     1.6670 oh         1 EQD      -0.508100
     21 OAX          2.9370    -3.3480     0.0610 oh         1 EQD      -0.508100
     22 ClB          0.5330    -2.0880    -1.2020 cl         1 EQD      -0.175000
     23 ClR          2.9150     2.5710     0.6760 cl         1 EQD      -0.175000
     24 H1           1.0370     1.9870    -1.1730 hc         1 EQD       0.071200
     25 H2           0.2950     0.5390    -1.7510 hc         1 EQD       0.071200
     26 H3          -0.8200     0.2210     0.5170 hc         1 EQD       0.068700
     27 H4          -0.0870     1.7150     1.0570 hc         1 EQD       0.068700
     28 H5          -3.2710     4.6390    -1.0270 h4         1 EQD       0.037100
     29 H6          -4.4580     2.3570    -1.9710 h4         1 EQD       0.153000
     30 H7          -1.9990    -0.4120    -1.7720 h1         1 EQD       0.066700
     31 H8          -3.6810    -0.0580    -2.1730 h1         1 EQD       0.066700
     32 H9          -4.4760     0.8020     0.8100 ha         1 EQD       0.117000
     33 H10         -5.2010    -0.5830     2.7290 ha         1 EQD       0.115500
     34 H11         -4.5670    -2.9900     2.8540 ha         1 EQD       0.115000
     35 H12         -3.1990    -4.0110     1.0370 ha         1 EQD       0.115500
     36 H13         -2.4630    -2.6350    -0.8930 ha         1 EQD       0.117000
     37 H14          4.7710    -1.9360     1.2730 ha         1 EQD       0.120000
     38 H15          5.5970    -0.0600     1.9610 ho         1 EQD       0.471000
     39 H16          3.7470    -3.6770     0.5030 ho         1 EQD       0.471000
     40 CAK         -2.9290     0.0150    -1.3760 c3         1 EQD       0.118900
@<TRIPOS>BOND
     1     1     2 ar  
     2     1    17 ar  
     3     1    22 1   
     4     2     3 1   
     5     2    14 ar  
     6     3     4 1   
     7     3    24 1   
     8     3    25 1   
     9     4     5 1   
    10     4    26 1   
    11     4    27 1   
    12     5    18 2   
    13     5    19 1   
    14     6     7 2   
    15     6    18 1   
    16     6    28 1   
    17     7    19 1   
    18     7    29 1   
    19     8     9 ar  
    20     8    13 ar  
    21     8    40 1   
    22     9    10 ar  
    23     9    32 1   
    24    10    11 ar  
    25    10    33 1   
    26    11    12 ar  
    27    11    34 1   
    28    12    13 ar  
    29    12    35 1   
    30    13    36 1   
    31    14    15 ar  
    32    14    23 1   
    33    15    16 ar  
    34    15    20 1   
    35    16    17 ar  
    36    16    37 1   
    37    17    21 1   
    38    19    40 1   
    39    20    38 1   
    40    21    39 1   
    41    30    40 1   
    42    31    40 1   
@<TRIPOS>SUBSTRUCTURE
     1 EQD         1 TEMP              0 ****  ****    0 ROOT
