@<TRIPOS>MOLECULE
EQE
   68    68     1     0     0
SMALL
No Charge or Current Charge


@<TRIPOS>ATOM
      1 C4          -4.7260    -0.2680     1.4880 c3         1 EQE      -0.230700
      2 C5          -5.4820    -1.1760     2.5210 c3         1 EQE      -0.038700
      3 C6          -4.6110    -2.3470     3.0440 c3         1 EQE      -0.082600
      4 C7          -6.0310    -0.3600     3.7190 c3         1 EQE      -0.082600
      5 C15         -0.1530     1.3770    -0.0800 c3         1 EQE      -0.061700
      6 C17          0.4040     0.8600     1.2700 c3         1 EQE      -0.094600
      7 C21          2.6510    -1.0440    -2.5260 c3         1 EQE       0.057700
      8 C22          2.6160    -1.4800    -4.0270 c3         1 EQE      -0.064700
      9 C24          3.7870    -2.4320    -4.3790 c3         1 EQE      -0.089600
     10 C1          -5.5850     0.9400     1.0540 c          1 EQE       0.718000
     11 O3          -6.5740     0.7140     0.3680 o          1 EQE      -0.716000
     12 C9          -4.2070    -1.0260     0.2290 c3         1 EQE       0.138300
     13 O10         -5.3430    -1.4490    -0.5540 oh         1 EQE      -0.701000
     14 C11         -3.1880    -0.1520    -0.5880 c          1 EQE       0.577100
     15 O12         -3.5290     0.7080    -1.3930 o          1 EQE      -0.589100
     16 N13         -1.8590    -0.4600    -0.3720 ns         1 EQE      -0.507900
     17 C14         -0.7040     0.2330    -0.9930 c3         1 EQE       0.042700
     18 C18          0.4030    -0.7970    -1.3740 c          1 EQE       0.594100
     19 O19          0.3740    -1.9720    -1.0270 o          1 EQE      -0.600100
     20 N20          1.4390    -0.2870    -2.1300 ns         1 EQE      -0.511900
     21 C25          3.8970    -0.2010    -2.1310 c          1 EQE       0.575100
     22 O26          4.6150     0.4030    -2.9200 o          1 EQE      -0.501000
     23 O27          4.0020    -0.0960    -0.7680 os         1 EQE      -0.424100
     24 C61          4.8730     0.7690     1.2830 ca         1 EQE      -0.097300
     25 C62          5.6130    -0.0920     2.1180 ca         1 EQE      -0.083000
     26 C63          5.4370    -0.0500     3.5120 ca         1 EQE      -0.115000
     27 C64          4.5180     0.8500     4.0800 ca         1 EQE      -0.099000
     28 C65          3.7750     1.7080     3.2510 ca         1 EQE      -0.115000
     29 C66          3.9520     1.6680     1.8570 ca         1 EQE      -0.083000
     30 H1          -3.8510     0.1300     2.0170 hc         1 EQE       0.040700
     31 H2          -6.3500    -1.6200     2.0180 hc         1 EQE       0.061700
     32 H3          -3.6710    -1.9770     3.4710 hc         1 EQE       0.022033
     33 H4          -5.1420    -2.9060     3.8250 hc         1 EQE       0.022033
     34 H5          -4.3750    -3.0590     2.2460 hc         1 EQE       0.022033
     35 H6          -6.7600     0.3900     3.3920 hc         1 EQE       0.022033
     36 H7          -6.5400    -1.0170     4.4350 hc         1 EQE       0.022033
     37 H8          -5.2190     0.1540     4.2470 hc         1 EQE       0.022033
     38 H9           0.6900     1.8390    -0.6100 hc         1 EQE       0.022700
     39 H10         -0.3830     0.3800     1.8650 hc         1 EQE       0.044200
     40 H11          1.2100     0.1330     1.1140 hc         1 EQE       0.044200
     41 H12          0.8140     1.6880     1.8600 hc         1 EQE       0.044200
     42 H13          2.7090    -1.9520    -1.9120 h1         1 EQE       0.107700
     43 H14          2.7320    -0.5750    -4.6390 hc         1 EQE       0.061700
     44 H15          3.7250    -3.3580    -3.7940 hc         1 EQE       0.038533
     45 H16          3.7630    -2.6980    -5.4420 hc         1 EQE       0.038533
     46 H17          4.7590    -1.9660    -4.1780 hc         1 EQE       0.038533
     47 H18          6.0360     0.3090    -0.4790 h1         1 EQE       0.051200
     48 H19          4.9960     1.7430    -0.6290 h1         1 EQE       0.051200
     49 H21         -3.6440    -1.9100     0.5510 h1         1 EQE       0.032700
     50 H22         -6.0040    -0.7110    -0.4250 ho         1 EQE       0.521000
     51 H23         -1.6650    -1.2260     0.2630 hn         1 EQE       0.324500
     52 H24         -1.0320     0.6790    -1.9410 h1         1 EQE       0.084700
     53 H25         -2.0320     2.1610     0.7430 hc         1 EQE       0.044200
     54 H26         -0.7200     3.3520     0.6730 hc         1 EQE       0.044200
     55 H27         -1.5640     2.8840    -0.8140 hc         1 EQE       0.044200
     56 H28          1.3830     0.6950    -2.3750 hn         1 EQE       0.321500
     57 H29          0.4380    -1.4140    -4.3360 hc         1 EQE       0.038533
     58 H30          1.2950    -2.4440    -5.4870 hc         1 EQE       0.038533
     59 H31          1.0490    -3.0020    -3.8190 hc         1 EQE       0.038533
     60 H32          6.3230    -0.7950     1.6870 ha         1 EQE       0.115000
     61 H33          6.0110    -0.7160     4.1530 ha         1 EQE       0.113500
     62 H34          4.3810     0.8810     5.1580 ha         1 EQE       0.110000
     63 H35          3.0620     2.4030     3.6890 ha         1 EQE       0.113500
     64 H36          3.3710     2.3330     1.2220 ha         1 EQE       0.115000
     65 OXT         -5.2220     2.0590     1.3770 o          1 EQE      -0.716000
     66 C23          1.2670    -2.1240    -4.4390 c3         1 EQE      -0.089600
     67 C16         -1.1820     2.5100     0.1440 c3         1 EQE      -0.094600
     68 C28          5.0500     0.7220    -0.2270 c3         1 EQE       0.210900
@<TRIPOS>BOND
     1     1     2 1   
     2     1    10 1   
     3     1    12 1   
     4     1    30 1   
     5     2     3 1   
     6     2     4 1   
     7     2    31 1   
     8     3    32 1   
     9     3    33 1   
    10     3    34 1   
    11     4    35 1   
    12     4    36 1   
    13     4    37 1   
    14     5     6 1   
    15     5    17 1   
    16     5    38 1   
    17     5    67 1   
    18     6    39 1   
    19     6    40 1   
    20     6    41 1   
    21     7     8 1   
    22     7    20 1   
    23     7    21 1   
    24     7    42 1   
    25     8     9 1   
    26     8    43 1   
    27     8    66 1   
    28     9    44 1   
    29     9    45 1   
    30     9    46 1   
    31    10    11 1   
    32    10    65 1   
    33    12    13 1   
    34    12    14 1   
    35    12    49 1   
    36    13    50 1   
    37    14    15 2   
    38    14    16 1   
    39    16    17 1   
    40    16    51 1   
    41    17    18 1   
    42    17    52 1   
    43    18    19 2   
    44    18    20 1   
    45    20    56 1   
    46    21    22 2   
    47    21    23 1   
    48    23    68 1   
    49    24    25 ar  
    50    24    29 ar  
    51    24    68 1   
    52    25    26 ar  
    53    25    60 1   
    54    26    27 ar  
    55    26    61 1   
    56    27    28 ar  
    57    27    62 1   
    58    28    29 ar  
    59    28    63 1   
    60    29    64 1   
    61    47    68 1   
    62    48    68 1   
    63    53    67 1   
    64    54    67 1   
    65    55    67 1   
    66    57    66 1   
    67    58    66 1   
    68    59    66 1   
@<TRIPOS>SUBSTRUCTURE
     1 EQE         1 TEMP              0 ****  ****    0 ROOT
