@<TRIPOS>MOLECULE
EQE
   68    68     1     0     0
SMALL
abcg2


@<TRIPOS>ATOM
      1 C4          -4.3950    -0.3090     1.4320 c3         1 EQE      -0.230700
      2 C5          -5.2000    -1.1070     2.4760 c3         1 EQE      -0.038700
      3 C6          -4.4790    -2.3820     2.9080 c3         1 EQE      -0.082600
      4 C7          -5.4940    -0.2450     3.7020 c3         1 EQE      -0.082600
      5 C15         -0.2980     1.5650    -0.2060 c3         1 EQE      -0.061700
      6 C17          0.1760     1.2400     1.2070 c3         1 EQE      -0.094600
      7 C21          2.4830    -1.0000    -2.4500 c3         1 EQE       0.057700
      8 C22          2.5720    -1.4640    -3.9060 c3         1 EQE      -0.064700
      9 C24          3.8340    -2.2960    -4.1160 c3         1 EQE      -0.089600
     10 C1          -5.1630     0.9600     1.0180 c          1 EQE       0.718000
     11 O3          -6.1890     0.7600     0.3100 o          1 EQE      -0.716000
     12 C9          -4.0790    -1.1450     0.1710 c3         1 EQE       0.138300
     13 O10         -5.2310    -1.5130    -0.5170 oh         1 EQE      -0.701000
     14 C11         -3.1270    -0.3470    -0.7270 c          1 EQE       0.577100
     15 O12         -3.5130     0.2830    -1.6970 o          1 EQE      -0.589100
     16 N13         -1.8410    -0.3850    -0.3240 ns         1 EQE      -0.507900
     17 C14         -0.7650     0.3070    -0.9770 c3         1 EQE       0.042700
     18 C18          0.4020    -0.6550    -1.1730 c          1 EQE       0.594100
     19 O19          0.5540    -1.6410    -0.4710 o          1 EQE      -0.600100
     20 N20          1.2520    -0.2990    -2.1560 ns         1 EQE      -0.511900
     21 C25          3.6130    -0.0590    -2.0450 c          1 EQE       0.575100
     22 O26          4.2190     0.6570    -2.8010 o          1 EQE      -0.501000
     23 O27          3.7950    -0.0780    -0.7350 os         1 EQE      -0.424100
     24 C61          4.6660     0.6980     1.3130 ca         1 EQE      -0.097300
     25 C62          5.4340    -0.2600     1.9690 ca         1 EQE      -0.083000
     26 C63          5.3300    -0.4260     3.3430 ca         1 EQE      -0.115000
     27 C64          4.4530     0.3660     4.0740 ca         1 EQE      -0.099000
     28 C65          3.6840     1.3250     3.4270 ca         1 EQE      -0.115000
     29 C66          3.7920     1.4880     2.0530 ca         1 EQE      -0.083000
     30 H1          -3.4470    -0.0160     1.8980 hc         1 EQE       0.040700
     31 H2          -6.1540    -1.3950     2.0240 hc         1 EQE       0.061700
     32 H3          -3.4740    -2.1620     3.2800 hc         1 EQE       0.022033
     33 H4          -5.0260    -2.8760     3.7130 hc         1 EQE       0.022033
     34 H5          -4.3830    -3.1060     2.0990 hc         1 EQE       0.022033
     35 H6          -6.0980     0.6290     3.4610 hc         1 EQE       0.022033
     36 H7          -6.0390    -0.8180     4.4540 hc         1 EQE       0.022033
     37 H8          -4.5680     0.1090     4.1620 hc         1 EQE       0.022033
     38 H9           0.5480     1.9770    -0.7660 hc         1 EQE       0.022700
     39 H10         -0.6360     0.8330     1.8130 hc         1 EQE       0.044200
     40 H11          1.0020     0.5300     1.2240 hc         1 EQE       0.044200
     41 H12          0.5250     2.1470     1.7030 hc         1 EQE       0.044200
     42 H13          2.5100    -1.8770    -1.8000 h1         1 EQE       0.107700
     43 H14          2.6160    -0.5830    -4.5550 hc         1 EQE       0.061700
     44 H15          3.8260    -3.1800    -3.4740 hc         1 EQE       0.038533
     45 H16          3.8940    -2.6410    -5.1480 hc         1 EQE       0.038533
     46 H17          4.7470    -1.7390    -3.9080 hc         1 EQE       0.038533
     47 H18          5.7440     0.6150    -0.5460 h1         1 EQE       0.051200
     48 H19          4.4940     1.8640    -0.4830 h1         1 EQE       0.051200
     49 H21         -3.5510    -2.0570     0.4750 h1         1 EQE       0.032700
     50 H22         -5.8310    -0.7360    -0.4000 ho         1 EQE       0.521000
     51 H23         -1.5930    -1.0080     0.4290 hn         1 EQE       0.324500
     52 H24         -1.1240     0.6300    -1.9570 h1         1 EQE       0.084700
     53 H25         -2.2700     2.2820     0.3820 hc         1 EQE       0.044200
     54 H26         -1.0340     3.5310     0.2950 hc         1 EQE       0.044200
     55 H27         -1.7300     2.8780    -1.1870 hc         1 EQE       0.044200
     56 H28          1.0230     0.5030    -2.7240 hn         1 EQE       0.321500
     57 H29          0.4240    -1.6830    -4.2460 hc         1 EQE       0.038533
     58 H30          1.4340    -2.6730    -5.2890 hc         1 EQE       0.038533
     59 H31          1.2080    -3.1270    -3.6010 hc         1 EQE       0.038533
     60 H32          6.1200    -0.8780     1.4020 ha         1 EQE       0.115000
     61 H33          5.9330    -1.1720     3.8450 ha         1 EQE       0.113500
     62 H34          4.3710     0.2380     5.1450 ha         1 EQE       0.110000
     63 H35          3.0020     1.9460     3.9930 ha         1 EQE       0.113500
     64 H36          3.1920     2.2390     1.5520 ha         1 EQE       0.115000
     65 OXT         -4.7540     2.0660     1.3990 o          1 EQE      -0.716000
     66 C23          1.3360    -2.2780    -4.2770 c3         1 EQE      -0.089600
     67 C16         -1.3980     2.6190    -0.1800 c3         1 EQE      -0.094600
     68 C28          4.7450     0.8470    -0.1740 c3         1 EQE       0.210900
@<TRIPOS>BOND
     1     1     2 1   
     2     1    10 1   
     3     1    12 1   
     4     1    30 1   
     5     2     3 1   
     6     2     4 1   
     7     2    31 1   
     8     3    32 1   
     9     3    33 1   
    10     3    34 1   
    11     4    35 1   
    12     4    36 1   
    13     4    37 1   
    14     5     6 1   
    15     5    17 1   
    16     5    38 1   
    17     5    67 1   
    18     6    39 1   
    19     6    40 1   
    20     6    41 1   
    21     7     8 1   
    22     7    20 1   
    23     7    21 1   
    24     7    42 1   
    25     8     9 1   
    26     8    43 1   
    27     8    66 1   
    28     9    44 1   
    29     9    45 1   
    30     9    46 1   
    31    10    11 1   
    32    10    65 1   
    33    12    13 1   
    34    12    14 1   
    35    12    49 1   
    36    13    50 1   
    37    14    15 2   
    38    14    16 1   
    39    16    17 1   
    40    16    51 1   
    41    17    18 1   
    42    17    52 1   
    43    18    19 2   
    44    18    20 1   
    45    20    56 1   
    46    21    22 2   
    47    21    23 1   
    48    23    68 1   
    49    24    25 ar  
    50    24    29 ar  
    51    24    68 1   
    52    25    26 ar  
    53    25    60 1   
    54    26    27 ar  
    55    26    61 1   
    56    27    28 ar  
    57    27    62 1   
    58    28    29 ar  
    59    28    63 1   
    60    29    64 1   
    61    47    68 1   
    62    48    68 1   
    63    53    67 1   
    64    54    67 1   
    65    55    67 1   
    66    57    66 1   
    67    58    66 1   
    68    59    66 1   
@<TRIPOS>SUBSTRUCTURE
     1 EQE         1 TEMP              0 ****  ****    0 ROOT
