@<TRIPOS>MOLECULE
EQF
   32    33     1     0     0
SMALL
bcc


@<TRIPOS>ATOM
      1 F3         -36.6030    70.3460    26.3690 f          1 EQF      -0.230967
      2 C12        -35.3960    70.2720    26.9360 c3         1 EQF       0.743200
      3 F1         -34.6280    69.5350    26.1240 f          1 EQF      -0.230967
      4 F2         -35.5410    69.5710    28.0670 f          1 EQF      -0.230967
      5 C2         -34.8240    71.6320    27.1800 ca         1 EQF      -0.370600
      6 C1         -33.5600    71.8290    27.7190 ca         1 EQF       0.609300
      7 CL         -32.5700    70.4780    28.1530 cl         1 EQF      -0.141000
      8 C3         -35.5450    72.7900    26.8780 ca         1 EQF       0.003000
      9 C4         -35.0050    74.0320    27.1060 ca         1 EQF      -0.312300
     10 C5         -33.7150    74.0900    27.6450 ca         1 EQF       0.717200
     11 N1         -33.0220    73.0000    27.9420 nb         1 EQF      -0.741000
     12 N2         -33.1260    75.2920    27.9210 nu         1 EQF      -0.616900
     13 N3         -31.8080    75.3220    28.2290 n          1 EQF      -0.362800
     14 C9         -31.3480    75.2340    29.5350 c          1 EQF       0.719500
     15 O1         -32.0540    75.2930    30.5050 o          1 EQF      -0.552500
     16 C8         -29.8600    74.9800    29.4630 c5         1 EQF      -0.137700
     17 C11        -29.6040    73.5310    29.8840 c3         1 EQF      -0.080600
     18 C7         -29.4920    75.3000    28.0020 c5         1 EQF      -0.137700
     19 C10        -28.4000    74.4660    27.3540 c3         1 EQF      -0.080600
     20 C6         -30.8080    75.2260    27.2700 c          1 EQF       0.719500
     21 O2         -31.0200    75.1310    26.0910 o          1 EQF      -0.552500
     22 H1         -36.5390    72.7260    26.4570 ha         1 EQF       0.158000
     23 H2         -35.5540    74.9340    26.8730 ha         1 EQF       0.155000
     24 H3         -33.5230    76.1440    27.5530 hn         1 EQF       0.469800
     25 H4         -29.3450    75.6480    30.1550 hc         1 EQF       0.083700
     26 H5         -29.9340    73.3720    30.9090 hc         1 EQF       0.052700
     27 H6         -30.1310    72.8220    29.2440 hc         1 EQF       0.052700
     28 H7         -28.5410    73.3050    29.8390 hc         1 EQF       0.052700
     29 H8         -29.1950    76.3550    27.9550 hc         1 EQF       0.083700
     30 H9         -27.4720    74.5550    27.9170 hc         1 EQF       0.052700
     31 H10        -28.6660    73.4110    27.3020 hc         1 EQF       0.052700
     32 H11        -28.2070    74.8160    26.3410 hc         1 EQF       0.052700
@<TRIPOS>BOND
     1     1     2 1   
     2     2     3 1   
     3     2     4 1   
     4     2     5 1   
     5     5     6 ar  
     6     5     8 ar  
     7     6     7 1   
     8     6    11 ar  
     9     8     9 ar  
    10     8    22 1   
    11     9    10 ar  
    12     9    23 1   
    13    10    11 ar  
    14    10    12 1   
    15    12    13 1   
    16    12    24 1   
    17    13    14 1   
    18    13    20 1   
    19    14    15 2   
    20    14    16 1   
    21    16    17 1   
    22    16    18 1   
    23    16    25 1   
    24    17    26 1   
    25    17    27 1   
    26    17    28 1   
    27    18    19 1   
    28    18    20 1   
    29    18    29 1   
    30    19    30 1   
    31    19    31 1   
    32    19    32 1   
    33    20    21 2   
@<TRIPOS>SUBSTRUCTURE
     1 EQF         1 TEMP              0 ****  ****    0 ROOT
