@<TRIPOS>MOLECULE
EQF
   32    33     1     0     0
SMALL
No Charge or Current Charge


@<TRIPOS>ATOM
      1 F3         -36.7120    70.2700    26.2200 f          1 EQF      -0.109667
      2 C12        -35.5530    70.2140    26.9150 c3         1 EQF       0.379300
      3 F1         -34.7130    69.4360    26.1960 f          1 EQF      -0.109667
      4 F2         -35.8280    69.5560    28.0640 f          1 EQF      -0.109667
      5 C2         -34.9570    71.5970    27.1830 ca         1 EQF      -0.305300
      6 C1         -33.7470    71.7390    27.8960 ca         1 EQF       0.544000
      7 Cl         -32.8470    70.3580    28.5200 cl         1 EQF      -0.141000
      8 C3         -35.5970    72.7680    26.7300 ca         1 EQF       0.021000
      9 C4         -34.9970    74.0020    27.0070 ca         1 EQF      -0.229000
     10 C5         -33.7920    74.0310    27.7130 ca         1 EQF       0.651900
     11 N1         -33.1770    72.9280    28.1600 nb         1 EQF      -0.741000
     12 N2         -33.1770    75.2430    28.0150 nu         1 EQF      -0.672100
     13 N3         -31.7420    75.2670    28.3010 n          1 EQF      -0.228800
     14 C9         -31.2640    75.3050    29.6200 c          1 EQF       0.577000
     15 O1         -31.8990    75.6480    30.6100 o          1 EQF      -0.477000
     16 C8         -29.7630    74.9520    29.4900 c5         1 EQF      -0.137700
     17 C11        -29.5590    73.4420    29.7830 c3         1 EQF      -0.080600
     18 C7         -29.4450    75.3770    28.0120 c5         1 EQF      -0.137700
     19 C10        -28.2100    74.7450    27.3220 c3         1 EQF      -0.080600
     20 C6         -30.7850    75.1310    27.2830 c          1 EQF       0.577000
     21 O2         -31.0020    74.7860    26.1280 o          1 EQF      -0.477000
     22 H1         -36.5350    72.7350    26.1770 ha         1 EQF       0.140000
     23 H2         -35.4620    74.9250    26.6760 ha         1 EQF       0.137000
     24 H3         -33.5730    76.0920    27.6060 hn         1 EQF       0.525000
     25 H4         -29.1930    75.5050    30.2450 hc         1 EQF       0.083700
     26 H5         -29.9080    73.1880    30.7920 hc         1 EQF       0.052700
     27 H6         -30.1120    72.8130    29.0740 hc         1 EQF       0.052700
     28 H7         -28.5000    73.1640    29.7250 hc         1 EQF       0.052700
     29 H8         -29.3040    76.4650    28.0210 hc         1 EQF       0.083700
     30 H9         -27.2990    74.9220    27.9070 hc         1 EQF       0.052700
     31 H10        -28.3270    73.6610    27.1990 hc         1 EQF       0.052700
     32 H11        -28.0540    75.1750    26.3260 hc         1 EQF       0.052700
@<TRIPOS>BOND
     1     1     2 1   
     2     2     3 1   
     3     2     4 1   
     4     2     5 1   
     5     5     6 ar  
     6     5     8 ar  
     7     6     7 1   
     8     6    11 ar  
     9     8     9 ar  
    10     8    22 1   
    11     9    10 ar  
    12     9    23 1   
    13    10    11 ar  
    14    10    12 1   
    15    12    13 1   
    16    12    24 1   
    17    13    14 1   
    18    13    20 1   
    19    14    15 2   
    20    14    16 1   
    21    16    17 1   
    22    16    18 1   
    23    16    25 1   
    24    17    26 1   
    25    17    27 1   
    26    17    28 1   
    27    18    19 1   
    28    18    20 1   
    29    18    29 1   
    30    19    30 1   
    31    19    31 1   
    32    19    32 1   
    33    20    21 2   
@<TRIPOS>SUBSTRUCTURE
     1 EQF         1 TEMP              0 ****  ****    0 ROOT
