@<TRIPOS>MOLECULE
EQG
  106   108     1     0     0
SMALL
abcg2


@<TRIPOS>ATOM
      1 C42          5.1620     1.4450    -0.8560 c          1 EQG       0.641100
      2 O51          4.9360     1.5410    -2.0460 o          1 EQG      -0.549000
      3 O43          6.1380     2.1060    -0.2250 os         1 EQG      -0.453100
      4 C44          6.9650     2.9610    -1.0250 c3         1 EQG       0.231900
      5 C45          7.8910     3.6730    -0.0860 ca         1 EQG      -0.103300
      6 C46          7.4740     4.8320     0.5640 ca         1 EQG      -0.083500
      7 C47          8.3170     5.4820     1.4540 ca         1 EQG      -0.115000
      8 C48          9.5870     4.9770     1.7030 ca         1 EQG      -0.097000
      9 C49         10.0110     3.8220     1.0580 ca         1 EQG      -0.115000
     10 C50          9.1640     3.1730     0.1700 ca         1 EQG      -0.083500
     11 N41          4.4830     0.6650     0.0040 ns         1 EQG      -0.496900
     12 C33          3.3320    -0.1070    -0.3800 c3         1 EQG       0.052700
     13 C34          3.6460    -1.5970    -0.5810 c3         1 EQG      -0.102400
     14 C35          4.6720    -1.8210    -1.6730 c3         1 EQG       0.158600
     15 C02          2.2650     0.0240     0.7060 c          1 EQG       0.592100
     16 O36          4.8030    -3.2290    -1.8320 os         1 EQG      -0.250300
     17 N37          5.7070    -3.5160    -2.8330 nu         1 EQG      -0.675900
     18 C38          5.1280    -4.1270    -3.9510 c2         1 EQG       0.754100
     19 N39          3.8860    -4.1760    -4.2250 n2         1 EQG      -0.861100
     20 N40          6.0750    -4.5830    -4.8280 nv         1 EQG      -1.030200
     21 O01          2.5620     0.2690     1.8640 o          1 EQG      -0.603100
     22 N03          1.0150    -0.1990     0.2760 ns         1 EQG      -0.484900
     23 C04         -0.1260    -0.3330     1.1430 c3         1 EQG       0.028700
     24 C11         -0.8650    -1.6280     0.8060 c          1 EQG       0.587100
     25 O32         -0.7230    -2.1960    -0.2650 o          1 EQG      -0.603100
     26 C05         -1.0960     0.8640     1.0540 c6         1 EQG      -0.066700
     27 C10         -1.5940     1.1360    -0.3660 c6         1 EQG      -0.075400
     28 C09         -2.6230     2.2630    -0.3730 c6         1 EQG      -0.075900
     29 C08         -2.0540     3.5360     0.2410 c6         1 EQG      -0.075400
     30 C07         -1.5070     3.2750     1.6410 c6         1 EQG      -0.075900
     31 C06         -0.4920     2.1350     1.6460 c6         1 EQG      -0.075400
     32 N12         -1.7140    -2.0290     1.7690 ns         1 EQG      -0.513900
     33 C13         -2.6390    -3.1460     1.6770 c3         1 EQG       0.079700
     34 C28         -2.5520    -3.9480     2.9760 c3         1 EQG      -0.080400
     35 C29         -3.5060    -5.1370     3.1010 c3         1 EQG      -0.058700
     36 C30         -3.3650    -6.1180     1.9410 c3         1 EQG      -0.090100
     37 C31         -3.2620    -5.8440     4.4310 c3         1 EQG      -0.090100
     38 C14         -4.0550    -2.6350     1.3650 c3         1 EQG       0.166300
     39 O15         -4.5290    -1.7660     2.3680 oh         1 EQG      -0.644000
     40 C16         -4.1300    -1.9890    -0.0130 c3         1 EQG      -0.199400
     41 C17         -5.5180    -1.4630    -0.3050 c          1 EQG       0.606100
     42 O27         -6.5220    -2.1400    -0.1330 o          1 EQG      -0.594100
     43 C21         -7.7910     2.6270    -1.8750 ca         1 EQG      -0.084300
     44 C22         -8.6650     3.2110    -0.9610 ca         1 EQG      -0.104000
     45 C23         -9.8390     3.8170    -1.3870 ca         1 EQG      -0.108000
     46 C24        -10.1570     3.8470    -2.7380 ca         1 EQG      -0.107000
     47 C25         -9.2930     3.2670    -3.6590 ca         1 EQG      -0.108000
     48 C26         -8.1200     2.6620    -3.2280 ca         1 EQG      -0.104000
     49 C20         -6.5390     1.9380    -1.4090 c3         1 EQG      -0.048100
     50 C19         -6.7850     0.4480    -1.1890 c3         1 EQG       0.104000
     51 N18         -5.5620    -0.2030    -0.7690 ns         1 EQG      -0.512900
     52 H441         7.5250     2.3680    -1.7500 h1         1 EQG       0.057200
     53 H442         6.3480     3.6750    -1.5730 h1         1 EQG       0.057200
     54 H461         6.4870     5.2320     0.3680 ha         1 EQG       0.114500
     55 H471         7.9850     6.3850     1.9500 ha         1 EQG       0.115000
     56 H481        10.2460     5.4840     2.3960 ha         1 EQG       0.113000
     57 H491        11.0010     3.4280     1.2460 ha         1 EQG       0.115000
     58 H501         9.4980     2.2730    -0.3320 ha         1 EQG       0.114500
     59 H411         4.7320     0.6740     0.9820 hn         1 EQG       0.350500
     60 H331         2.9430     0.2990    -1.3170 h1         1 EQG       0.091700
     61 H341         4.0010    -2.0250     0.3610 hc         1 EQG       0.066700
     62 H342         2.7200    -2.1150    -0.8460 hc         1 EQG       0.066700
     63 H351         4.3450    -1.3600    -2.6110 h1         1 EQG       0.053700
     64 H352         5.6380    -1.3870    -1.4000 h1         1 EQG       0.053700
     65 H371         6.4860    -4.0270    -2.4320 hn         1 EQG       0.454000
     66 H391         3.3350    -3.7780    -3.4750 hn         1 EQG       0.402400
     67 H1           5.7300    -5.2310    -5.5170 hn         1 EQG       0.468500
     68 H401         6.9820    -4.8300    -4.4670 hn         1 EQG       0.468500
     69 H031         0.8750    -0.4310    -0.6960 hn         1 EQG       0.336500
     70 H041         0.2400    -0.3920     2.1710 h1         1 EQG       0.091700
     71 H051        -1.9640     0.5990     1.6730 hc         1 EQG       0.043700
     72 H101        -0.7470     1.4210    -1.0000 hc         1 EQG       0.048450
     73 H102        -2.0220     0.2370    -0.8180 hc         1 EQG       0.048450
     74 H091        -2.9650     2.4510    -1.3940 hc         1 EQG       0.039700
     75 H092        -3.5060     1.9530     0.2000 hc         1 EQG       0.039700
     76 H081        -1.2480     3.9140    -0.3970 hc         1 EQG       0.044200
     77 H082        -2.8180     4.3160     0.2730 hc         1 EQG       0.044200
     78 H071        -1.0490     4.1810     2.0430 hc         1 EQG       0.039700
     79 H072        -2.3350     3.0220     2.3130 hc         1 EQG       0.039700
     80 H061        -0.1440     1.9460     2.6640 hc         1 EQG       0.048450
     81 H062         0.3880     2.4280     1.0620 hc         1 EQG       0.048450
     82 H121        -1.6580    -1.5580     2.6610 hn         1 EQG       0.314500
     83 H131        -2.3140    -3.7720     0.8430 h1         1 EQG       0.087700
     84 H281        -1.5230    -4.3120     3.0700 hc         1 EQG       0.046200
     85 H282        -2.7160    -3.2750     3.8230 hc         1 EQG       0.046200
     86 H291        -4.5350    -4.7630     3.1130 hc         1 EQG       0.059700
     87 H301        -2.3430    -6.5000     1.8760 hc         1 EQG       0.034867
     88 H302        -4.0290    -6.9730     2.0750 hc         1 EQG       0.034867
     89 H303        -3.6100    -5.6680     0.9770 hc         1 EQG       0.034867
     90 H311        -3.3700    -5.1590     5.2740 hc         1 EQG       0.034867
     91 H312        -3.9680    -6.6640     4.5760 hc         1 EQG       0.034867
     92 H313        -2.2540    -6.2630     4.4700 hc         1 EQG       0.034867
     93 H141        -4.7370    -3.4880     1.3720 h1         1 EQG       0.104700
     94 H151        -3.9990    -0.9620     2.3640 ho         1 EQG       0.432000
     95 H161        -3.3900    -1.1900    -0.1020 hc         1 EQG       0.068200
     96 H162        -3.8770    -2.7290    -0.7770 hc         1 EQG       0.068200
     97 H221        -8.4210     3.1950     0.0960 ha         1 EQG       0.111500
     98 H231       -10.5050     4.2690    -0.6620 ha         1 EQG       0.113500
     99 H241       -11.0700     4.3210    -3.0720 ha         1 EQG       0.113000
    100 H251        -9.5320     3.2890    -4.7140 ha         1 EQG       0.113500
    101 H261        -7.4490     2.2160    -3.9530 ha         1 EQG       0.111500
    102 H201        -5.7460     2.0710    -2.1520 hc         1 EQG       0.048200
    103 H202        -6.1850     2.3880    -0.4780 hc         1 EQG       0.048200
    104 H191        -7.5480     0.3100    -0.4220 h1         1 EQG       0.057700
    105 H192        -7.1660    -0.0040    -2.1100 h1         1 EQG       0.057700
    106 H181        -4.6930     0.2590    -0.9840 hn         1 EQG       0.307500
@<TRIPOS>BOND
     1     1     2 2   
     2     1     3 1   
     3     1    11 1   
     4     3     4 1   
     5     4     5 1   
     6     4    52 1   
     7     4    53 1   
     8     5     6 ar  
     9     5    10 ar  
    10     6     7 ar  
    11     6    54 1   
    12     7     8 ar  
    13     7    55 1   
    14     8     9 ar  
    15     8    56 1   
    16     9    10 ar  
    17     9    57 1   
    18    10    58 1   
    19    11    12 1   
    20    11    59 1   
    21    12    13 1   
    22    12    15 1   
    23    12    60 1   
    24    13    14 1   
    25    13    61 1   
    26    13    62 1   
    27    14    16 1   
    28    14    63 1   
    29    14    64 1   
    30    15    21 2   
    31    15    22 1   
    32    16    17 1   
    33    17    18 1   
    34    17    65 1   
    35    18    19 2   
    36    18    20 1   
    37    19    66 1   
    38    20    67 1   
    39    20    68 1   
    40    22    23 1   
    41    22    69 1   
    42    23    24 1   
    43    23    26 1   
    44    23    70 1   
    45    24    25 2   
    46    24    32 1   
    47    26    27 1   
    48    26    31 1   
    49    26    71 1   
    50    27    28 1   
    51    27    72 1   
    52    27    73 1   
    53    28    29 1   
    54    28    74 1   
    55    28    75 1   
    56    29    30 1   
    57    29    76 1   
    58    29    77 1   
    59    30    31 1   
    60    30    78 1   
    61    30    79 1   
    62    31    80 1   
    63    31    81 1   
    64    32    33 1   
    65    32    82 1   
    66    33    34 1   
    67    33    38 1   
    68    33    83 1   
    69    34    35 1   
    70    34    84 1   
    71    34    85 1   
    72    35    36 1   
    73    35    37 1   
    74    35    86 1   
    75    36    87 1   
    76    36    88 1   
    77    36    89 1   
    78    37    90 1   
    79    37    91 1   
    80    37    92 1   
    81    38    39 1   
    82    38    40 1   
    83    38    93 1   
    84    39    94 1   
    85    40    41 1   
    86    40    95 1   
    87    40    96 1   
    88    41    42 2   
    89    41    51 1   
    90    43    44 ar  
    91    43    48 ar  
    92    43    49 1   
    93    44    45 ar  
    94    44    97 1   
    95    45    46 ar  
    96    45    98 1   
    97    46    47 ar  
    98    46    99 1   
    99    47    48 ar  
   100    47   100 1   
   101    48   101 1   
   102    49    50 1   
   103    49   102 1   
   104    49   103 1   
   105    50    51 1   
   106    50   104 1   
   107    50   105 1   
   108    51   106 1   
@<TRIPOS>SUBSTRUCTURE
     1 EQG         1 TEMP              0 ****  ****    0 ROOT
