@<TRIPOS>MOLECULE
EQG
  106   108     1     0     0
SMALL
No Charge or Current Charge


@<TRIPOS>ATOM
      1 C42          5.4980     1.5570    -0.8910 c          1 EQG       0.641100
      2 O51          5.3190     1.7230    -2.0870 o          1 EQG      -0.549000
      3 O43          6.5070     2.0880    -0.1530 os         1 EQG      -0.453100
      4 C44          7.4600     2.9190    -0.8340 c3         1 EQG       0.231900
      5 C45          8.4910     3.3970     0.1790 ca         1 EQG      -0.103300
      6 C46          8.2870     4.5990     0.8880 ca         1 EQG      -0.083500
      7 C47          9.2390     5.0410     1.8230 ca         1 EQG      -0.115000
      8 C48         10.4000     4.2840     2.0560 ca         1 EQG      -0.097000
      9 C49         10.6080     3.0850     1.3550 ca         1 EQG      -0.115000
     10 C50          9.6560     2.6420     0.4190 ca         1 EQG      -0.083500
     11 N41          4.7020     0.8060    -0.0750 ns         1 EQG      -0.496900
     12 C33          3.4770     0.0900    -0.4950 c3         1 EQG       0.052700
     13 C34          3.7890    -1.3730    -0.9150 c3         1 EQG      -0.102400
     14 C35          4.7500    -1.5010    -2.1160 c3         1 EQG       0.158600
     15 C02          2.4150     0.1380     0.6430 c          1 EQG       0.592100
     16 O36          4.8550    -2.9000    -2.4410 os         1 EQG      -0.250300
     17 N37          5.7290    -3.1180    -3.5600 nu         1 EQG      -0.675900
     18 C38          5.4370    -4.1890    -4.3150 c2         1 EQG       0.754100
     19 N39          4.4160    -4.2230    -5.0260 n2         1 EQG      -0.861100
     20 N40          6.5330    -4.8910    -4.5210 nv         1 EQG      -1.030200
     21 O01          2.6840     0.4670     1.7930 o          1 EQG      -0.603100
     22 N03          1.1370    -0.2190     0.2670 ns         1 EQG      -0.484900
     23 C04         -0.0480    -0.2340     1.1590 c3         1 EQG       0.028700
     24 C11         -0.9220    -1.4860     0.8590 c          1 EQG       0.587100
     25 O32         -0.7970    -2.1590    -0.1570 o          1 EQG      -0.603100
     26 C05         -0.8670     1.1020     1.0770 c6         1 EQG      -0.066700
     27 C10         -1.3390     1.4380    -0.3690 c6         1 EQG      -0.075400
     28 C09         -2.2170     2.7140    -0.3910 c6         1 EQG      -0.075900
     29 C08         -1.4680     3.9180     0.2310 c6         1 EQG      -0.075400
     30 C07         -0.9780     3.5950     1.6640 c6         1 EQG      -0.075900
     31 C06         -0.1050     2.3150     1.6830 c6         1 EQG      -0.075400
     32 N12         -1.8610    -1.7870     1.8270 ns         1 EQG      -0.513900
     33 C13         -2.8210    -2.9040     1.7560 c3         1 EQG       0.079700
     34 C28         -2.8280    -3.6540     3.1180 c3         1 EQG      -0.080400
     35 C29         -3.7150    -4.9300     3.2010 c3         1 EQG      -0.058700
     36 C30         -3.3460    -5.9920     2.1380 c3         1 EQG      -0.090100
     37 C31         -3.6650    -5.5400     4.6210 c3         1 EQG      -0.090100
     38 C14         -4.2330    -2.4370     1.2670 c3         1 EQG       0.166300
     39 O15         -4.8070    -1.5150     2.2040 oh         1 EQG      -0.644000
     40 C16         -4.2050    -1.7660    -0.1220 c3         1 EQG      -0.199400
     41 C17         -5.6140    -1.5580    -0.6690 c          1 EQG       0.606100
     42 O27         -6.3090    -2.4830    -1.0620 o          1 EQG      -0.594100
     43 C21         -8.8170     2.1630    -1.7930 ca         1 EQG      -0.084300
     44 C22         -9.9110     2.3200    -0.9200 ca         1 EQG      -0.104000
     45 C23        -11.1610     2.7290    -1.4160 ca         1 EQG      -0.108000
     46 C24        -11.3250     2.9820    -2.7880 ca         1 EQG      -0.107000
     47 C25        -10.2380     2.8250    -3.6640 ca         1 EQG      -0.108000
     48 C26         -8.9870     2.4160    -3.1680 ca         1 EQG      -0.104000
     49 C20         -7.4650     1.7150    -1.2570 c3         1 EQG      -0.048100
     50 C19         -7.3290     0.1810    -1.2500 c3         1 EQG       0.104000
     51 N18         -6.0270    -0.2480    -0.7370 ns         1 EQG      -0.512900
     52 H441         7.9630     2.3590    -1.6340 h1         1 EQG       0.057200
     53 H442         6.9640     3.7860    -1.2910 h1         1 EQG       0.057200
     54 H461         7.3890     5.1890     0.7150 ha         1 EQG       0.114500
     55 H471         9.0760     5.9690     2.3670 ha         1 EQG       0.115000
     56 H481        11.1370     4.6270     2.7800 ha         1 EQG       0.113000
     57 H491        11.5060     2.4980     1.5360 ha         1 EQG       0.115000
     58 H501         9.8230     1.7110    -0.1180 ha         1 EQG       0.114500
     59 H411         4.9570     0.8020     0.9060 hn         1 EQG       0.350500
     60 H331         3.0360     0.6190    -1.3520 h1         1 EQG       0.091700
     61 H341         4.2160    -1.9100    -0.0590 hc         1 EQG       0.066700
     62 H342         2.8520    -1.8810    -1.1720 hc         1 EQG       0.066700
     63 H351         4.3520    -0.9330    -2.9680 h1         1 EQG       0.053700
     64 H352         5.7340    -1.0910    -1.8520 h1         1 EQG       0.053700
     65 H371         6.6860    -3.1860    -3.2230 hn         1 EQG       0.454000
     66 H391         3.8580    -3.4220    -4.7080 hn         1 EQG       0.402400
     67 H1           6.3980    -5.5020    -5.3160 hn         1 EQG       0.468500
     68 H401         6.8200    -5.4030    -3.6970 hn         1 EQG       0.468500
     69 H031         1.0070    -0.5190    -0.6930 hn         1 EQG       0.336500
     70 H041         0.2950    -0.3550     2.1950 h1         1 EQG       0.091700
     71 H051        -1.7620     0.9450     1.6950 hc         1 EQG       0.043700
     72 H101        -0.4710     1.5880    -1.0260 hc         1 EQG       0.048450
     73 H102        -1.9050     0.6000    -0.7950 hc         1 EQG       0.048450
     74 H091        -2.5080     2.9490    -1.4240 hc         1 EQG       0.039700
     75 H092        -3.1500     2.5310     0.1620 hc         1 EQG       0.039700
     76 H081        -0.6100     4.1860    -0.4020 hc         1 EQG       0.044200
     77 H082        -2.1270     4.7970     0.2510 hc         1 EQG       0.044200
     78 H071        -0.4040     4.4430     2.0610 hc         1 EQG       0.039700
     79 H072        -1.8420     3.4630     2.3300 hc         1 EQG       0.039700
     80 H061         0.1980     2.0930     2.7160 hc         1 EQG       0.048450
     81 H062         0.8190     2.5020     1.1200 hc         1 EQG       0.048450
     82 H121        -1.8530    -1.2100     2.6600 hn         1 EQG       0.314500
     83 H131        -2.4450    -3.6140     1.0070 h1         1 EQG       0.087700
     84 H281        -1.7950    -3.9360     3.3590 hc         1 EQG       0.046200
     85 H282        -3.1430    -2.9560     3.9040 hc         1 EQG       0.046200
     86 H291        -4.7580    -4.6350     3.0270 hc         1 EQG       0.059700
     87 H301        -2.2910    -6.2810     2.2230 hc         1 EQG       0.034867
     88 H302        -3.9570    -6.8940     2.2630 hc         1 EQG       0.034867
     89 H303        -3.5210    -5.6170     1.1230 hc         1 EQG       0.034867
     90 H311        -3.9790    -4.8040     5.3710 hc         1 EQG       0.034867
     91 H312        -4.3360    -6.4040     4.6970 hc         1 EQG       0.034867
     92 H313        -2.6500    -5.8710     4.8690 hc         1 EQG       0.034867
     93 H141        -4.8690    -3.3310     1.1840 h1         1 EQG       0.104700
     94 H151        -4.1410    -0.8130     2.3590 ho         1 EQG       0.432000
     95 H161        -3.6820    -0.8060    -0.0530 hc         1 EQG       0.068200
     96 H162        -3.6690    -2.4270    -0.8120 hc         1 EQG       0.068200
     97 H221        -9.7930     2.1240     0.1440 ha         1 EQG       0.111500
     98 H231       -12.0030     2.8480    -0.7370 ha         1 EQG       0.113500
     99 H241       -12.2930     3.2970    -3.1720 ha         1 EQG       0.113000
    100 H251       -10.3640     3.0190    -4.7270 ha         1 EQG       0.113500
    101 H261        -8.1510     2.2950    -3.8540 ha         1 EQG       0.111500
    102 H201        -6.6570     2.1440    -1.8630 hc         1 EQG       0.048200
    103 H202        -7.3190     2.0930    -0.2370 hc         1 EQG       0.048200
    104 H191        -8.1190    -0.2540    -0.6230 h1         1 EQG       0.057700
    105 H192        -7.4530    -0.2010    -2.2720 h1         1 EQG       0.057700
    106 H181        -5.3850     0.4540    -0.3920 hn         1 EQG       0.307500
@<TRIPOS>BOND
     1     1     2 2   
     2     1     3 1   
     3     1    11 1   
     4     3     4 1   
     5     4     5 1   
     6     4    52 1   
     7     4    53 1   
     8     5     6 ar  
     9     5    10 ar  
    10     6     7 ar  
    11     6    54 1   
    12     7     8 ar  
    13     7    55 1   
    14     8     9 ar  
    15     8    56 1   
    16     9    10 ar  
    17     9    57 1   
    18    10    58 1   
    19    11    12 1   
    20    11    59 1   
    21    12    13 1   
    22    12    15 1   
    23    12    60 1   
    24    13    14 1   
    25    13    61 1   
    26    13    62 1   
    27    14    16 1   
    28    14    63 1   
    29    14    64 1   
    30    15    21 2   
    31    15    22 1   
    32    16    17 1   
    33    17    18 1   
    34    17    65 1   
    35    18    19 2   
    36    18    20 1   
    37    19    66 1   
    38    20    67 1   
    39    20    68 1   
    40    22    23 1   
    41    22    69 1   
    42    23    24 1   
    43    23    26 1   
    44    23    70 1   
    45    24    25 2   
    46    24    32 1   
    47    26    27 1   
    48    26    31 1   
    49    26    71 1   
    50    27    28 1   
    51    27    72 1   
    52    27    73 1   
    53    28    29 1   
    54    28    74 1   
    55    28    75 1   
    56    29    30 1   
    57    29    76 1   
    58    29    77 1   
    59    30    31 1   
    60    30    78 1   
    61    30    79 1   
    62    31    80 1   
    63    31    81 1   
    64    32    33 1   
    65    32    82 1   
    66    33    34 1   
    67    33    38 1   
    68    33    83 1   
    69    34    35 1   
    70    34    84 1   
    71    34    85 1   
    72    35    36 1   
    73    35    37 1   
    74    35    86 1   
    75    36    87 1   
    76    36    88 1   
    77    36    89 1   
    78    37    90 1   
    79    37    91 1   
    80    37    92 1   
    81    38    39 1   
    82    38    40 1   
    83    38    93 1   
    84    39    94 1   
    85    40    41 1   
    86    40    95 1   
    87    40    96 1   
    88    41    42 2   
    89    41    51 1   
    90    43    44 ar  
    91    43    48 ar  
    92    43    49 1   
    93    44    45 ar  
    94    44    97 1   
    95    45    46 ar  
    96    45    98 1   
    97    46    47 ar  
    98    46    99 1   
    99    47    48 ar  
   100    47   100 1   
   101    48   101 1   
   102    49    50 1   
   103    49   102 1   
   104    49   103 1   
   105    50    51 1   
   106    50   104 1   
   107    50   105 1   
   108    51   106 1   
@<TRIPOS>SUBSTRUCTURE
     1 EQG         1 TEMP              0 ****  ****    0 ROOT
