@<TRIPOS>MOLECULE
EQH
   44    47     1     0     0
SMALL
No Charge or Current Charge


@<TRIPOS>ATOM
      1 N01         24.9480     5.0330   -19.0540 nv         1 EQH      -1.047900
      2 C02         25.2820     6.2830   -19.4580 ca         1 EQH       0.545900
      3 N03         25.5930     6.2450   -20.7580 nb         1 EQH      -0.736000
      4 C04         25.9450     7.4500   -21.2920 ca         1 EQH       0.339900
      5 C05         25.9820     8.6620   -20.5330 ca         1 EQH       0.314500
      6 C06         26.3420     9.9370   -21.1460 cc         1 EQH      -0.228500
      7 S07         25.3470    11.3820   -21.0750 ss         1 EQH       0.290000
      8 C08         26.6010    12.2940   -21.9110 cc         1 EQH      -0.275000
      9 C09         27.6980    11.5100   -22.1750 cd         1 EQH      -0.132000
     10 C10         27.5640    10.1580   -21.7440 cd         1 EQH      -0.084300
     11 C11         28.6650     9.1600   -21.8780 cx         1 EQH      -0.056400
     12 C12         28.7130     8.2300   -23.0700 cx         1 EQH      -0.131400
     13 C13         29.7630     9.3000   -22.9120 cx         1 EQH      -0.131400
     14 N14         25.6520     8.6920   -19.2140 nb         1 EQH      -0.635000
     15 C15         25.3100     7.4900   -18.6630 ca         1 EQH       0.300300
     16 C16         24.9180     7.5070   -17.1680 c6         1 EQH      -0.107000
     17 C17         25.7960     8.4470   -16.2910 c6         1 EQH      -0.063900
     18 C18         25.4990     8.2660   -14.7740 c6         1 EQH      -0.060400
     19 C19         24.0180     7.8640   -14.4730 c6         1 EQH      -0.185700
     20 C20         23.5710     8.2670   -13.0440 c          1 EQH       0.709000
     21 O21         23.2740     7.3740   -12.2640 o          1 EQH      -0.737500
     22 O22         23.5190     9.4540   -12.7600 o          1 EQH      -0.737500
     23 C23         23.0600     8.4070   -15.5690 c6         1 EQH      -0.060400
     24 C24         23.4040     7.8410   -16.9780 c6         1 EQH      -0.063900
     25 H011        25.1860     4.2880   -19.6990 hn         1 EQH       0.477000
     26 H012        24.9790     4.8120   -18.0640 hn         1 EQH       0.477000
     27 H04         26.1800     7.4520   -22.3550 h4         1 EQH       0.024100
     28 H08         26.4410    13.3430   -22.1250 h4         1 EQH       0.143000
     29 H121        29.0080     7.1990   -22.8950 hc         1 EQH       0.069700
     30 H122        27.9720     8.3670   -23.8540 hc         1 EQH       0.069700
     31 H131        29.7300    10.1300   -23.6120 hc         1 EQH       0.069700
     32 H132        30.7650     8.9880   -22.6280 hc         1 EQH       0.069700
     33 H16         25.0810     6.4950   -16.7750 hc         1 EQH       0.042700
     34 H171        26.8620     8.2610   -16.4800 hc         1 EQH       0.030700
     35 H172        25.6120     9.4940   -16.5720 hc         1 EQH       0.030700
     36 H241        23.0800     8.5710   -17.7340 hc         1 EQH       0.030700
     37 H242        22.8140     6.9340   -17.1660 hc         1 EQH       0.030700
     38 H181        26.1670     7.5000   -14.3550 hc         1 EQH       0.043450
     39 H182        25.7560     9.2010   -14.2570 hc         1 EQH       0.043450
     40 H19         23.9650     6.7670   -14.5180 hc         1 EQH       0.026700
     41 H231        22.0180     8.1630   -15.3190 hc         1 EQH       0.043450
     42 H232        23.1190     9.5050   -15.5920 hc         1 EQH       0.043450
     43 H11         28.9630     8.7380   -20.9200 hc         1 EQH       0.081700
     44 H09         28.5890    11.9020   -22.6560 ha         1 EQH       0.122000
@<TRIPOS>BOND
     1     1     2 1   
     2     1    25 1   
     3     1    26 1   
     4     2     3 ar  
     5     2    15 ar  
     6     3     4 ar  
     7     4     5 ar  
     8     4    27 1   
     9     5     6 1   
    10     5    14 ar  
    11     6     7 1   
    12     6    10 2   
    13     7     8 1   
    14     8     9 2   
    15     8    28 1   
    16     9    10 1   
    17     9    44 1   
    18    10    11 1   
    19    11    12 1   
    20    11    13 1   
    21    11    43 1   
    22    12    13 1   
    23    12    29 1   
    24    12    30 1   
    25    13    31 1   
    26    13    32 1   
    27    14    15 ar  
    28    15    16 1   
    29    16    17 1   
    30    16    24 1   
    31    16    33 1   
    32    17    18 1   
    33    17    34 1   
    34    17    35 1   
    35    18    19 1   
    36    18    38 1   
    37    18    39 1   
    38    19    20 1   
    39    19    23 1   
    40    19    40 1   
    41    20    21 1   
    42    20    22 1   
    43    23    24 1   
    44    23    41 1   
    45    23    42 1   
    46    24    36 1   
    47    24    37 1   
@<TRIPOS>SUBSTRUCTURE
     1 EQH         1 TEMP              0 ****  ****    0 ROOT
