@<TRIPOS>MOLECULE
EQH
   44    47     1     0     0
SMALL
abcg2


@<TRIPOS>ATOM
      1 N01         25.3360     5.0140   -18.4440 nv         1 EQH      -1.047900
      2 C02         25.8330     6.1730   -18.9760 ca         1 EQH       0.545900
      3 N03         26.3620     6.1100   -20.1970 nb         1 EQH      -0.736000
      4 C04         26.8100     7.2370   -20.7560 ca         1 EQH       0.339900
      5 C05         26.7560     8.4610   -20.0960 ca         1 EQH       0.314500
      6 C06         27.2270     9.7290   -20.6400 cc         1 EQH      -0.228500
      7 S07         26.8130    11.1760   -19.7610 ss         1 EQH       0.290000
      8 C08         27.6080    12.1720   -20.9110 cc         1 EQH      -0.275000
      9 C09         28.1710    11.4370   -21.9120 cd         1 EQH      -0.132000
     10 C10         27.9630    10.0300   -21.7740 cd         1 EQH      -0.084300
     11 C11         28.5080     9.0250   -22.7230 cx         1 EQH      -0.056400
     12 C12         27.7200     8.6000   -23.9440 cx         1 EQH      -0.131400
     13 C13         28.9760     9.4100   -24.0990 cx         1 EQH      -0.131400
     14 N14         26.2070     8.5100   -18.8610 nb         1 EQH      -0.635000
     15 C15         25.7440     7.4210   -18.2880 ca         1 EQH       0.300300
     16 C16         25.0910     7.5280   -16.9340 c6         1 EQH      -0.107000
     17 C17         25.5100     8.7640   -16.1380 c6         1 EQH      -0.063900
     18 C18         24.9970     8.6710   -14.6900 c6         1 EQH      -0.060400
     19 C19         23.6490     7.9330   -14.5730 c6         1 EQH      -0.185700
     20 C20         22.8110     8.3610   -13.3500 c          1 EQH       0.709000
     21 O21         22.2490     7.4400   -12.6980 o          1 EQH      -0.737500
     22 O22         22.7120     9.5930   -13.1090 o          1 EQH      -0.737500
     23 C23         22.8400     8.1380   -15.8610 c6         1 EQH      -0.060400
     24 C24         23.5440     7.5000   -17.0720 c6         1 EQH      -0.063900
     25 H011        25.6480     4.1620   -18.8850 hn         1 EQH       0.477000
     26 H012        25.2160     4.9560   -17.4460 hn         1 EQH       0.477000
     27 H04         27.2090     7.1500   -21.7550 h4         1 EQH       0.024100
     28 H08         27.6300    13.2430   -20.7800 h4         1 EQH       0.143000
     29 H121        27.7380     7.5530   -24.2190 hc         1 EQH       0.069700
     30 H122        26.7760     9.1010   -24.1160 hc         1 EQH       0.069700
     31 H131        28.8710    10.4410   -24.4070 hc         1 EQH       0.069700
     32 H132        29.8590     8.9150   -24.4810 hc         1 EQH       0.069700
     33 H16         25.3950     6.6530   -16.3490 hc         1 EQH       0.042700
     34 H171        26.5950     8.8760   -16.1510 hc         1 EQH       0.030700
     35 H172        25.1050     9.6520   -16.6280 hc         1 EQH       0.030700
     36 H241        23.2610     8.0370   -17.9820 hc         1 EQH       0.030700
     37 H242        23.2110     6.4690   -17.1980 hc         1 EQH       0.030700
     38 H181        25.7380     8.1580   -14.0700 hc         1 EQH       0.043450
     39 H182        24.8780     9.6760   -14.2820 hc         1 EQH       0.043450
     40 H19         23.8310     6.8600   -14.4660 hc         1 EQH       0.026700
     41 H231        21.8390     7.7140   -15.7560 hc         1 EQH       0.043450
     42 H232        22.7120     9.2110   -16.0240 hc         1 EQH       0.043450
     43 H11         29.0700     8.2260   -22.2520 hc         1 EQH       0.081700
     44 H09         28.7340    11.8760   -22.7230 ha         1 EQH       0.122000
@<TRIPOS>BOND
     1     1     2 1   
     2     1    25 1   
     3     1    26 1   
     4     2     3 ar  
     5     2    15 ar  
     6     3     4 ar  
     7     4     5 ar  
     8     4    27 1   
     9     5     6 1   
    10     5    14 ar  
    11     6     7 1   
    12     6    10 2   
    13     7     8 1   
    14     8     9 2   
    15     8    28 1   
    16     9    10 1   
    17     9    44 1   
    18    10    11 1   
    19    11    12 1   
    20    11    13 1   
    21    11    43 1   
    22    12    13 1   
    23    12    29 1   
    24    12    30 1   
    25    13    31 1   
    26    13    32 1   
    27    14    15 ar  
    28    15    16 1   
    29    16    17 1   
    30    16    24 1   
    31    16    33 1   
    32    17    18 1   
    33    17    34 1   
    34    17    35 1   
    35    18    19 1   
    36    18    38 1   
    37    18    39 1   
    38    19    20 1   
    39    19    23 1   
    40    19    40 1   
    41    20    21 1   
    42    20    22 1   
    43    23    24 1   
    44    23    41 1   
    45    23    42 1   
    46    24    36 1   
    47    24    37 1   
@<TRIPOS>SUBSTRUCTURE
     1 EQH         1 TEMP              0 ****  ****    0 ROOT
