@<TRIPOS>MOLECULE
EQI
   40    43     1     0     0
SMALL
abcg2


@<TRIPOS>ATOM
      1 C1           0.1030     0.0420    -4.5290 ca         1 EQI       0.140100
      2 C2          -0.9610     0.3470    -3.6940 ca         1 EQI      -0.151000
      3 C3          -0.8770     0.1500    -2.3170 ca         1 EQI      -0.028300
      4 C4           0.2950    -0.3540    -1.7550 ca         1 EQI      -0.103300
      5 C5           1.3510    -0.6700    -2.6110 ca         1 EQI      -0.067000
      6 C6           1.2720    -0.4810    -3.9790 ca         1 EQI      -0.204000
      7 C10         -2.0820     0.4750    -1.4770 c6         1 EQI       0.003100
      8 C11         -1.9280     0.1370    -0.0330 c2         1 EQI      -0.211200
      9 C12         -0.8100    -0.3320     0.5100 c2         1 EQI      -0.093400
     10 C13          0.4540    -0.5780    -0.2720 c6         1 EQI       0.027800
     11 C16         -0.6190    -0.6010     1.9650 c5         1 EQI      -0.027500
     12 C17          0.4650     0.3340     2.5360 c5         1 EQI      -0.154000
     13 C18          1.7850     0.0810     1.8230 c6         1 EQI      -0.051400
     14 C19          1.6160     0.2590     0.3110 c6         1 EQI      -0.069400
     15 C24         -1.7610    -0.5110     2.9720 c5         1 EQI      -0.065400
     16 C25         -1.0150    -0.5030     4.3140 c5         1 EQI      -0.191400
     17 C26          0.3950    -0.0160     4.0060 c          1 EQI       0.580100
     18 C27          0.0610     1.8160     2.4470 c3         1 EQI      -0.078100
     19 O1          -0.0440     0.2600    -5.8540 oh         1 EQI      -0.535100
     20 O26          1.2960     0.0730     4.8040 o          1 EQI      -0.511100
     21 H2          -1.8760     0.7410    -4.1230 ha         1 EQI       0.126000
     22 H5           2.2640    -1.0830    -2.2000 ha         1 EQI       0.110000
     23 H6           2.1130    -0.7420    -4.6120 ha         1 EQI       0.113000
     24 H10         -2.9560    -0.0440    -1.8840 hc         1 EQI       0.059200
     25 H102        -2.3210     1.5400    -1.5770 hc         1 EQI       0.059200
     26 H11         -2.7970     0.3100     0.5950 ha         1 EQI       0.174000
     27 H131         0.7260    -1.6330    -0.1170 hc         1 EQI       0.058700
     28 H16         -0.2100    -1.6200     2.0490 hc         1 EQI       0.055700
     29 H181         2.5670     0.7490     2.1890 hc         1 EQI       0.051200
     30 H182         2.1200    -0.9400     2.0300 hc         1 EQI       0.051200
     31 H191         1.4520     1.3120     0.0670 hc         1 EQI       0.045700
     32 H192         2.5470    -0.0250    -0.1840 hc         1 EQI       0.045700
     33 H241        -2.3450     0.4030     2.8460 hc         1 EQI       0.051700
     34 H242        -2.4520    -1.3490     2.8870 hc         1 EQI       0.051700
     35 H251        -1.4800     0.1170     5.0820 hc         1 EQI       0.072200
     36 H252        -0.9380    -1.5110     4.7320 hc         1 EQI       0.072200
     37 H271         0.8720     2.4450     2.8160 hc         1 EQI       0.042367
     38 H272        -0.1540     2.1040     1.4190 hc         1 EQI       0.042367
     39 H273        -0.8260     2.0520     3.0360 hc         1 EQI       0.042367
     40 HO1          0.7470    -0.0170    -6.3270 ho         1 EQI       0.464000
@<TRIPOS>BOND
     1     1     2 ar  
     2     1     6 ar  
     3     1    19 1   
     4     2     3 ar  
     5     2    21 1   
     6     3     4 ar  
     7     3     7 1   
     8     4     5 ar  
     9     4    10 1   
    10     5     6 ar  
    11     5    22 1   
    12     6    23 1   
    13     7     8 1   
    14     7    24 1   
    15     7    25 1   
    16     8     9 2   
    17     8    26 1   
    18     9    10 1   
    19     9    11 1   
    20    10    14 1   
    21    10    27 1   
    22    11    12 1   
    23    11    15 1   
    24    11    28 1   
    25    12    13 1   
    26    12    17 1   
    27    12    18 1   
    28    13    14 1   
    29    13    29 1   
    30    13    30 1   
    31    14    31 1   
    32    14    32 1   
    33    15    16 1   
    34    15    33 1   
    35    15    34 1   
    36    16    17 1   
    37    16    35 1   
    38    16    36 1   
    39    17    20 2   
    40    18    37 1   
    41    18    38 1   
    42    18    39 1   
    43    19    40 1   
@<TRIPOS>SUBSTRUCTURE
     1 EQI         1 TEMP              0 ****  ****    0 ROOT
