@<TRIPOS>MOLECULE
EQI
   40    43     1     0     0
SMALL
No Charge or Current Charge


@<TRIPOS>ATOM
      1 C1           0.0660     0.1010    -4.5820 ca         1 EQI       0.140100
      2 C2          -1.0240     0.3210    -3.7300 ca         1 EQI      -0.151000
      3 C3          -0.9070     0.1010    -2.3440 ca         1 EQI      -0.028300
      4 C4           0.3260    -0.3370    -1.8050 ca         1 EQI      -0.103300
      5 C5           1.4120    -0.5700    -2.6760 ca         1 EQI      -0.067000
      6 C6           1.2840    -0.3480    -4.0580 ca         1 EQI      -0.204000
      7 C10         -2.1340     0.3360    -1.4630 c6         1 EQI       0.003100
      8 C11         -1.9450     0.0050     0.0040 c2         1 EQI      -0.211200
      9 C12         -0.7760    -0.3980     0.5310 c2         1 EQI      -0.093400
     10 C13          0.4990    -0.5950    -0.2970 c6         1 EQI       0.027800
     11 C16         -0.6000    -0.6840     2.0280 c5         1 EQI      -0.027500
     12 C17          0.4650     0.3090     2.5840 c5         1 EQI      -0.154000
     13 C18          1.8190     0.0530     1.8530 c6         1 EQI      -0.051400
     14 C19          1.6810     0.2300     0.3100 c6         1 EQI      -0.069400
     15 C24         -1.8130    -0.4750     2.9890 c5         1 EQI      -0.065400
     16 C25         -1.0890    -0.2950     4.3700 c5         1 EQI      -0.191400
     17 C26          0.4150    -0.1140     4.0670 c          1 EQI       0.580100
     18 C27          0.1030     1.8330     2.4640 c3         1 EQI      -0.078100
     19 O1          -0.0650     0.3180    -5.9200 oh         1 EQI      -0.535100
     20 O26          1.3440    -0.5250     4.7510 o          1 EQI      -0.511100
     21 H2          -1.9680     0.6610    -4.1480 ha         1 EQI       0.126000
     22 H5           2.3610    -0.9310    -2.2860 ha         1 EQI       0.110000
     23 H6           2.1340    -0.5310    -4.7110 ha         1 EQI       0.113000
     24 H10         -2.9710    -0.2590    -1.8530 hc         1 EQI       0.059200
     25 H102        -2.4430     1.3870    -1.5520 hc         1 EQI       0.059200
     26 H11         -2.8400     0.1290     0.6130 ha         1 EQI       0.174000
     27 H131         0.7690    -1.6560    -0.1950 hc         1 EQI       0.058700
     28 H16         -0.2470    -1.7180     2.1380 hc         1 EQI       0.055700
     29 H181         2.5990     0.7220     2.2420 hc         1 EQI       0.051200
     30 H182         2.1630    -0.9700     2.0640 hc         1 EQI       0.051200
     31 H191         1.5480     1.2920     0.0650 hc         1 EQI       0.045700
     32 H192         2.6280    -0.0640    -0.1610 hc         1 EQI       0.045700
     33 H241        -2.3970     0.4200     2.7500 hc         1 EQI       0.051700
     34 H242        -2.5020    -1.3270     2.9810 hc         1 EQI       0.051700
     35 H251        -1.4500     0.6260     4.8390 hc         1 EQI       0.072200
     36 H252        -1.2350    -1.1190     5.0760 hc         1 EQI       0.072200
     37 H271         0.9220     2.4590     2.8390 hc         1 EQI       0.042367
     38 H272        -0.0900     2.1340     1.4280 hc         1 EQI       0.042367
     39 H273        -0.7870     2.1080     3.0390 hc         1 EQI       0.042367
     40 HO1          0.7920     0.1100    -6.3510 ho         1 EQI       0.464000
@<TRIPOS>BOND
     1     1     2 ar  
     2     1     6 ar  
     3     1    19 1   
     4     2     3 ar  
     5     2    21 1   
     6     3     4 ar  
     7     3     7 1   
     8     4     5 ar  
     9     4    10 1   
    10     5     6 ar  
    11     5    22 1   
    12     6    23 1   
    13     7     8 1   
    14     7    24 1   
    15     7    25 1   
    16     8     9 2   
    17     8    26 1   
    18     9    10 1   
    19     9    11 1   
    20    10    14 1   
    21    10    27 1   
    22    11    12 1   
    23    11    15 1   
    24    11    28 1   
    25    12    13 1   
    26    12    17 1   
    27    12    18 1   
    28    13    14 1   
    29    13    29 1   
    30    13    30 1   
    31    14    31 1   
    32    14    32 1   
    33    15    16 1   
    34    15    33 1   
    35    15    34 1   
    36    16    17 1   
    37    16    35 1   
    38    16    36 1   
    39    17    20 2   
    40    18    37 1   
    41    18    38 1   
    42    18    39 1   
    43    19    40 1   
@<TRIPOS>SUBSTRUCTURE
     1 EQI         1 TEMP              0 ****  ****    0 ROOT
