@<TRIPOS>MOLECULE
EQK
   50    52     1     0     0
SMALL
abcg2


@<TRIPOS>ATOM
      1 N12        143.0800   164.3070   148.9140 nb         1 EQK      -0.289500
      2 C15        147.3450   174.6350   149.9360 ca         1 EQK       0.352300
      3 C17        146.6780   173.5570   149.3620 ca         1 EQK      -0.138000
      4 C20        144.5650   172.3710   148.8460 cc         1 EQK      -0.198000
      5 C21        144.6280   174.5450   150.0750 ca         1 EQK      -0.133000
      6 C22        143.5130   172.3120   147.9850 cd         1 EQK       0.208300
      7 C24        145.3810   175.5770   150.6010 ca         1 EQK       0.343900
      8 C26        142.7940   173.4730   147.3740 c3         1 EQK       0.292700
      9 C28        143.8930   166.4580   148.3010 ca         1 EQK      -0.339600
     10 C14        148.8690   174.7240   149.8580 c3         1 EQK      -0.028200
     11 C16        145.2900   173.5060   149.4240 ca         1 EQK       0.026000
     12 C18        149.4350   175.8700   150.7020 c3         1 EQK      -0.077100
     13 C19        149.3100   174.8870   148.3920 c3         1 EQK      -0.077100
     14 C23        149.4200   173.4650   150.3720 c1         1 EQK       0.300900
     15 C25        143.7760   170.1650   148.2450 cc         1 EQK       0.537300
     16 C27        144.2550   167.8480   148.6770 c          1 EQK       0.660700
     17 C29        143.3250   165.5730   149.2160 ca         1 EQK       0.413800
     18 C30        144.2030   165.9210   147.0530 ca         1 EQK       0.413800
     19 C31        143.4150   163.9170   147.6980 ca         1 EQK       0.222900
     20 C32        142.4340   165.1600   151.3660 c3         1 EQK       0.160400
     21 C33        145.1300   166.1910   144.8940 c3         1 EQK       0.160400
     22 F02        143.5620   174.5610   147.3020 f          1 EQK      -0.106000
     23 F03        141.7040   173.8010   148.0840 f          1 EQK      -0.106000
     24 F04        142.3820   173.1900   146.1390 f          1 EQK      -0.106000
     25 N08        146.7080   175.6250   150.5370 nb         1 EQK      -0.659000
     26 N09        143.0720   171.0710   147.6510 nd         1 EQK      -0.676000
     27 N10        143.5390   168.8280   148.0620 ns         1 EQK      -0.455400
     28 N11        149.8630   172.4790   150.7670 n1         1 EQK      -0.458000
     29 N13        143.9630   164.6530   146.7490 nb         1 EQK      -0.289500
     30 O05        143.0150   166.0430   150.4060 os         1 EQK      -0.444800
     31 O06        144.7670   166.7200   146.1700 os         1 EQK      -0.444800
     32 O07        145.1300   168.1130   149.4760 o          1 EQK      -0.552100
     33 S01        145.0330   170.7590   149.2700 ss         1 EQK       0.134600
     34 H1         147.2310   172.7720   148.8590 ha         1 EQK       0.134000
     35 H3         143.5540   174.5460   150.1920 ha         1 EQK       0.135000
     36 H4         144.8920   176.4010   151.1070 h4         1 EQK       0.026100
     37 H5         150.5230   175.8660   150.6410 hc         1 EQK       0.050200
     38 H6         149.0740   176.8220   150.3190 hc         1 EQK       0.050200
     39 H7         149.1440   175.7870   151.7480 hc         1 EQK       0.050200
     40 H8         150.3960   174.9320   148.3240 hc         1 EQK       0.050200
     41 H9         148.9590   174.0670   147.7670 hc         1 EQK       0.050200
     42 H10        148.9010   175.8180   148.0000 hc         1 EQK       0.050200
     43 H11        143.2190   162.8790   147.4520 h5         1 EQK       0.056100
     44 H12        142.2680   165.7640   152.2530 h1         1 EQK       0.057033
     45 H13        141.4850   164.7580   151.0150 h1         1 EQK       0.057033
     46 H14        143.1060   164.3370   151.6070 h1         1 EQK       0.057033
     47 H15        145.5830   167.0170   144.3550 h1         1 EQK       0.057033
     48 H16        145.8500   165.3790   144.9930 h1         1 EQK       0.057033
     49 H17        144.2570   165.8330   144.3490 h1         1 EQK       0.057033
     50 H2         142.7830   168.5890   147.4330 hn         1 EQK       0.352500
@<TRIPOS>BOND
     1     1    17 ar  
     2     1    19 ar  
     3     2     3 ar  
     4     2    10 1   
     5     2    25 ar  
     6     3    11 ar  
     7     3    34 1   
     8     4     6 2   
     9     4    11 1   
    10     4    33 1   
    11     5     7 ar  
    12     5    11 ar  
    13     5    35 1   
    14     6     8 1   
    15     6    26 1   
    16     7    25 ar  
    17     7    36 1   
    18     8    22 1   
    19     8    23 1   
    20     8    24 1   
    21     9    16 1   
    22     9    17 ar  
    23     9    18 ar  
    24    10    12 1   
    25    10    13 1   
    26    10    14 1   
    27    12    37 1   
    28    12    38 1   
    29    12    39 1   
    30    13    40 1   
    31    13    41 1   
    32    13    42 1   
    33    14    28 3   
    34    15    26 2   
    35    15    27 1   
    36    15    33 1   
    37    16    27 1   
    38    16    32 2   
    39    17    30 1   
    40    18    29 ar  
    41    18    31 1   
    42    19    29 ar  
    43    19    43 1   
    44    20    30 1   
    45    20    44 1   
    46    20    45 1   
    47    20    46 1   
    48    21    31 1   
    49    21    47 1   
    50    21    48 1   
    51    21    49 1   
    52    27    50 1   
@<TRIPOS>SUBSTRUCTURE
     1 EQK         1 TEMP              0 ****  ****    0 ROOT
