@<TRIPOS>MOLECULE
EQK
   50    52     1     0     0
SMALL
No Charge or Current Charge


@<TRIPOS>ATOM
      1 N12        142.8890   164.0180   148.9370 nb         1 EQK      -0.289500
      2 C15        147.2730   174.8850   150.0530 ca         1 EQK       0.352300
      3 C17        146.8020   173.6570   149.5350 ca         1 EQK      -0.138000
      4 C20        144.9260   172.1920   148.8270 cc         1 EQK      -0.198000
      5 C21        144.5540   174.4930   149.7140 ca         1 EQK      -0.133000
      6 C22        144.3240   172.0930   147.5840 cd         1 EQK       0.208300
      7 C24        145.0890   175.6850   150.2200 ca         1 EQK       0.343900
      8 C26        144.0720   173.2340   146.5930 c3         1 EQK       0.292700
      9 C28        143.6690   166.2350   148.4120 ca         1 EQK      -0.339600
     10 C14        148.7890   175.1390   150.2380 c3         1 EQK      -0.028200
     11 C16        145.4250   173.4550   149.3540 ca         1 EQK       0.026000
     12 C18        149.1150   176.5460   150.8310 c3         1 EQK      -0.077100
     13 C19        149.5210   174.9990   148.8730 c3         1 EQK      -0.077100
     14 C23        149.2910   174.1170   151.1750 c1         1 EQK       0.300900
     15 C25        144.2790   169.9530   148.2440 cc         1 EQK       0.537300
     16 C27        144.2000   167.5630   148.8790 c          1 EQK       0.660700
     17 C29        143.3520   165.2180   149.3400 ca         1 EQK       0.413800
     18 C30        143.4690   165.9270   147.0470 ca         1 EQK       0.413800
     19 C31        142.7430   163.8280   147.6190 ca         1 EQK       0.222900
     20 C32        143.1650   164.4570   151.6770 c3         1 EQK       0.160400
     21 C33        143.6150   166.5870   144.6760 c3         1 EQK       0.160400
     22 F02        145.1520   174.0390   146.4550 f          1 EQK      -0.106000
     23 F03        143.0410   174.0190   146.9820 f          1 EQK      -0.106000
     24 F04        143.7700   172.7870   145.3500 f          1 EQK      -0.106000
     25 N08        146.4160   175.8850   150.3850 nb         1 EQK      -0.659000
     26 N09        143.9410   170.7850   147.2720 nd         1 EQK      -0.676000
     27 N10        143.9520   168.6360   148.0670 ns         1 EQK      -0.455400
     28 N11        149.7040   173.2970   151.8930 n1         1 EQK      -0.458000
     29 N13        143.0070   164.7230   146.6570 nb         1 EQK      -0.289500
     30 O05        143.4620   165.4680   150.6920 os         1 EQK      -0.444800
     31 O06        143.7710   166.8660   146.0830 os         1 EQK      -0.444800
     32 O07        144.8510   167.6820   149.9030 o          1 EQK      -0.552100
     33 S01        145.0980   170.6600   149.6240 ss         1 EQK       0.134600
     34 H1         147.4990   172.8660   149.2710 ha         1 EQK       0.134000
     35 H3         143.4790   174.3820   149.6130 ha         1 EQK       0.135000
     36 H4         144.4350   176.5080   150.5060 h4         1 EQK       0.026100
     37 H5         150.1960   176.6770   150.9640 hc         1 EQK       0.050200
     38 H6         148.7650   177.3440   150.1640 hc         1 EQK       0.050200
     39 H7         148.6400   176.6880   151.8100 hc         1 EQK       0.050200
     40 H8         150.5980   175.1840   148.9810 hc         1 EQK       0.050200
     41 H9         149.3990   173.9970   148.4440 hc         1 EQK       0.050200
     42 H10        149.1270   175.7240   148.1490 hc         1 EQK       0.050200
     43 H11        142.3700   162.8570   147.2990 h5         1 EQK       0.056100
     44 H12        143.3220   164.8510   152.6890 h1         1 EQK       0.057033
     45 H13        142.1200   164.1280   151.6010 h1         1 EQK       0.057033
     46 H14        143.8160   163.5820   151.5500 h1         1 EQK       0.057033
     47 H15        143.9090   167.4590   144.0780 h1         1 EQK       0.057033
     48 H16        144.2440   165.7410   144.3710 h1         1 EQK       0.057033
     49 H17        142.5700   166.3490   144.4360 h1         1 EQK       0.057033
     50 H2         143.4850   168.4080   147.2020 hn         1 EQK       0.352500
@<TRIPOS>BOND
     1     1    17 ar  
     2     1    19 ar  
     3     2     3 ar  
     4     2    10 1   
     5     2    25 ar  
     6     3    11 ar  
     7     3    34 1   
     8     4     6 2   
     9     4    11 1   
    10     4    33 1   
    11     5     7 ar  
    12     5    11 ar  
    13     5    35 1   
    14     6     8 1   
    15     6    26 1   
    16     7    25 ar  
    17     7    36 1   
    18     8    22 1   
    19     8    23 1   
    20     8    24 1   
    21     9    16 1   
    22     9    17 ar  
    23     9    18 ar  
    24    10    12 1   
    25    10    13 1   
    26    10    14 1   
    27    12    37 1   
    28    12    38 1   
    29    12    39 1   
    30    13    40 1   
    31    13    41 1   
    32    13    42 1   
    33    14    28 3   
    34    15    26 2   
    35    15    27 1   
    36    15    33 1   
    37    16    27 1   
    38    16    32 2   
    39    17    30 1   
    40    18    29 ar  
    41    18    31 1   
    42    19    29 ar  
    43    19    43 1   
    44    20    30 1   
    45    20    44 1   
    46    20    45 1   
    47    20    46 1   
    48    21    31 1   
    49    21    47 1   
    50    21    48 1   
    51    21    49 1   
    52    27    50 1   
@<TRIPOS>SUBSTRUCTURE
     1 EQK         1 TEMP              0 ****  ****    0 ROOT
