@<TRIPOS>MOLECULE
EQL
   26    28     1     0     0
SMALL
No Charge or Current Charge


@<TRIPOS>ATOM
      1 C4         258.8200    22.0540   -18.6740 ca         1 EQL      -0.254600
      2 C14        258.1940    18.3700   -15.2280 c          1 EQL       0.735100
      3 C5         258.5930    20.7080   -18.3070 ca         1 EQL       0.036000
      4 C6         258.6330    20.3010   -16.9370 ca         1 EQL      -0.044000
      5 C11        258.7730    22.4840   -20.1130 c          1 EQL       0.605100
      6 C7         258.3240    19.7750   -19.3360 ca         1 EQL      -0.254600
      7 C8         258.0860    18.4320   -19.0130 ca         1 EQL      -0.013500
      8 C9         258.0860    18.0240   -17.6810 ca         1 EQL      -0.198500
      9 C10        258.3390    18.9310   -16.6300 ca         1 EQL       0.019900
     10 C12        258.2860    20.2010   -20.7760 c          1 EQL       0.605100
     11 C13        259.1960    20.9940   -14.4780 c          1 EQL       0.735100
     12 N1         258.5120    21.5120   -21.0160 ns         1 EQL      -0.472500
     13 C3         259.0970    23.0080   -17.6840 ca         1 EQL      -0.013500
     14 C1         258.9650    21.2860   -15.9490 ca         1 EQL       0.019900
     15 C2         259.1760    22.6240   -16.3470 ca         1 EQL      -0.198500
     16 O1         258.9560    23.6350   -20.4770 o          1 EQL      -0.608500
     17 O2         258.0650    19.4320   -21.6990 o          1 EQL      -0.608500
     18 O3         260.1890    20.3430   -14.1760 o          1 EQL      -0.702500
     19 O4         257.2300    18.7350   -14.5660 o          1 EQL      -0.702500
     20 O5         258.5070    21.5870   -13.6550 o          1 EQL      -0.702500
     21 O6         258.9160    17.4360   -14.9000 o          1 EQL      -0.702500
     22 H1         257.8780    17.7010   -19.7930 ha         1 EQL       0.095000
     23 H2         257.8640    16.9840   -17.4490 ha         1 EQL       0.118000
     24 H3         258.4840    21.7990   -21.9810 hn         1 EQL       0.292500
     25 H4         259.2740    24.0490   -17.9490 ha         1 EQL       0.095000
     26 H5         259.4270    23.3720   -15.5980 ha         1 EQL       0.118000
@<TRIPOS>BOND
     1     1     3 ar  
     2     1     5 1   
     3     1    13 ar  
     4     2     9 1   
     5     2    19 1   
     6     2    21 1   
     7     3     4 ar  
     8     3     6 ar  
     9     4     9 ar  
    10     4    14 ar  
    11     5    12 1   
    12     5    16 2   
    13     6     7 ar  
    14     6    10 1   
    15     7     8 ar  
    16     7    22 1   
    17     8     9 ar  
    18     8    23 1   
    19    10    12 1   
    20    10    17 2   
    21    11    14 1   
    22    11    18 1   
    23    11    20 1   
    24    12    24 1   
    25    13    15 ar  
    26    13    25 1   
    27    14    15 ar  
    28    15    26 1   
@<TRIPOS>SUBSTRUCTURE
     1 EQL         1 TEMP              0 ****  ****    0 ROOT
