@<TRIPOS>MOLECULE
EQL
   26    28     1     0     0
SMALL
bcc


@<TRIPOS>ATOM
      1 C4         258.7710    22.0690   -18.6550 ca         1 EQL      -0.254600
      2 C14        258.0110    18.4280   -15.2350 c          1 EQL       0.945700
      3 C5         258.5910    20.7080   -18.3100 ca         1 EQL       0.036000
      4 C6         258.6300    20.3030   -16.9460 ca         1 EQL      -0.044000
      5 C11        258.7250    22.5000   -20.0570 c          1 EQL       0.747600
      6 C7         258.3710    19.7530   -19.3310 ca         1 EQL      -0.254600
      7 C8         258.1930    18.4300   -19.0030 ca         1 EQL      -0.031500
      8 C9         258.1750    18.0370   -17.6650 ca         1 EQL      -0.216500
      9 C10        258.3420    18.9400   -16.6370 ca         1 EQL       0.019900
     10 C12        258.3420    20.1570   -20.7420 c          1 EQL       0.747600
     11 C13        259.3810    20.9530   -14.5290 c          1 EQL       0.945700
     12 N1         258.5170    21.5020   -20.9820 ns         1 EQL      -0.606500
     13 C3         258.9830    23.0020   -17.6690 ca         1 EQL      -0.031500
     14 C1         258.9560    21.2820   -15.9600 ca         1 EQL       0.019900
     15 C2         259.0790    22.6020   -16.3350 ca         1 EQL      -0.216500
     16 O1         258.8570    23.6530   -20.4200 o          1 EQL      -0.684000
     17 O2         258.1780    19.3890   -21.6690 o          1 EQL      -0.684000
     18 O3         260.2360    20.0550   -14.4460 o          1 EQL      -0.807800
     19 O4         257.1980    19.1320   -14.6110 o          1 EQL      -0.807800
     20 O5         258.9280    21.6760   -13.6270 o          1 EQL      -0.807800
     21 O6         258.4910    17.3300   -14.9120 o          1 EQL      -0.807800
     22 H1         258.0370    17.6950   -19.7820 ha         1 EQL       0.113000
     23 H2         257.9840    16.9980   -17.4290 ha         1 EQL       0.136000
     24 H3         258.4900    21.7910   -21.9530 hn         1 EQL       0.292500
     25 H4         259.1060    24.0460   -17.9270 ha         1 EQL       0.113000
     26 H5         259.2980    23.3470   -15.5820 ha         1 EQL       0.136000
@<TRIPOS>BOND
     1     1     3 ar  
     2     1     5 1   
     3     1    13 ar  
     4     2     9 1   
     5     2    19 1   
     6     2    21 1   
     7     3     4 ar  
     8     3     6 ar  
     9     4     9 ar  
    10     4    14 ar  
    11     5    12 1   
    12     5    16 2   
    13     6     7 ar  
    14     6    10 1   
    15     7     8 ar  
    16     7    22 1   
    17     8     9 ar  
    18     8    23 1   
    19    10    12 1   
    20    10    17 2   
    21    11    14 1   
    22    11    18 1   
    23    11    20 1   
    24    12    24 1   
    25    13    15 ar  
    26    13    25 1   
    27    14    15 ar  
    28    15    26 1   
@<TRIPOS>SUBSTRUCTURE
     1 EQL         1 TEMP              0 ****  ****    0 ROOT
