@<TRIPOS>MOLECULE
EQM
  100   101     1     0     0
SMALL
No Charge or Current Charge


@<TRIPOS>ATOM
      1 Br          -8.9020     0.4620    -0.5160 br         1 EQM      -0.104100
      2 C1           2.9000     0.8100    -0.1110 c3         1 EQM       0.110000
      3 N1           5.2450     0.5850     0.6850 ns         1 EQM      -0.479900
      4 O1           2.8060    -0.5400     0.4160 oh         1 EQM      -0.653000
      5 C2           4.2840     1.4710     0.2490 c          1 EQM       0.574100
      6 N2          -2.1660     1.5340     0.6610 n3         1 EQM      -0.448600
      7 O2           4.5000     2.6750     0.1730 o          1 EQM      -0.617100
      8 C3           6.6670     0.9060     0.9380 c3         1 EQM       0.040700
      9 N3          -2.4410     0.1750     1.0240 ns         1 EQM      -0.393300
     10 C4           6.9750     1.0750     2.4730 c3         1 EQM      -0.048000
     11 N4          -4.8240    -2.4100     0.0620 ns         1 EQM      -0.488900
     12 O4          -6.2540    -2.7170     1.8330 o          1 EQM      -0.556000
     13 C5           6.6580    -0.2280     3.2600 c3         1 EQM      -0.086100
     14 O5          -6.9260    -2.9750    -0.3510 os         1 EQM      -0.447100
     15 C6           8.4720     1.4330     2.6890 c3         1 EQM      -0.086100
     16 C7           1.7400     1.6380     0.5280 c3         1 EQM      -0.102400
     17 C9          -0.7820     1.9450     0.9860 c3         1 EQM       0.158800
     18 C11         -4.6260     2.0140     0.7780 ca         1 EQM      -0.083300
     19 C12         -3.0110    -0.7370     0.1350 c          1 EQM       0.606100
     20 C13         -3.5980    -2.0200     0.8000 c3         1 EQM       0.051700
     21 C14         -2.5750    -3.2110     0.9190 c3         1 EQM      -0.045000
     22 C15         -2.0970    -3.6860    -0.4820 c3         1 EQM      -0.088433
     23 C16         -1.3340    -2.7800     1.7470 c3         1 EQM      -0.088433
     24 C17         -3.2410    -4.4110     1.6500 c3         1 EQM      -0.088433
     25 C19         -8.2690    -3.3100     0.0440 c3         1 EQM       0.170900
     26 C20         -5.4400     1.3220     1.6980 ca         1 EQM      -0.086000
     27 C21         -6.7130     0.8630     1.3150 ca         1 EQM      -0.088000
     28 C22         -7.1770     1.0980     0.0110 ca         1 EQM      -0.009900
     29 C23         -6.3760     1.7930    -0.9100 ca         1 EQM      -0.088000
     30 C24         -5.1020     2.2490    -0.5270 ca         1 EQM      -0.086000
     31 C25          2.7890     0.7380    -1.6640 c3         1 EQM      -0.018100
     32 C26          4.0240     0.1300    -2.3340 ca         1 EQM      -0.090300
     33 C27          4.1710    -1.2680    -2.4240 ca         1 EQM      -0.096500
     34 C28          5.3210    -1.8260    -3.0080 ca         1 EQM      -0.111000
     35 C29          6.3350    -0.9900    -3.5050 ca         1 EQM      -0.103000
     36 C30          6.1940     0.4050    -3.4220 ca         1 EQM      -0.111000
     37 C31          5.0420     0.9630    -2.8420 ca         1 EQM      -0.096500
     38 C33         11.7340     0.8340    -0.5610 c2         1 EQM      -0.296000
     39 C34          7.5390    -0.1800     0.2340 c          1 EQM       0.588100
     40 C35          6.1200     2.2310     3.0640 c3         1 EQM      -0.086100
     41 C36         10.8690     0.2650    -1.4170 c2         1 EQM      -0.249200
     42 C37          9.6710    -0.5670    -1.0250 c3         1 EQM       0.133200
     43 HN1          4.9670    -0.3920     0.6680 hn         1 EQM       0.348500
     44 HO1          2.5180    -0.4740     1.3520 ho         1 EQM       0.446000
     45 H3           6.8960     1.8550     0.4350 h1         1 EQM       0.079700
     46 HN3         -2.4170    -0.0910     2.0040 hn         1 EQM       0.301500
     47 HN4         -4.8060    -2.4060    -0.9500 hn         1 EQM       0.345500
     48 H5           7.2700    -1.0670     2.9080 hc         1 EQM       0.038367
     49 H5A          6.8630    -0.0960     4.3290 hc         1 EQM       0.038367
     50 H5B          5.6030    -0.5100     3.1580 hc         1 EQM       0.038367
     51 HN5          8.9440     1.2530    -0.1950 hn         1 EQM       0.317500
     52 H6           8.7520     2.3210     2.1080 hc         1 EQM       0.038367
     53 H6A          8.6760     1.6460     3.7450 hc         1 EQM       0.038367
     54 H6B          9.1310     0.6080     2.3920 hc         1 EQM       0.038367
     55 H7           1.9010     1.6890     1.6130 hc         1 EQM       0.057200
     56 H7A          1.8020     2.6720     0.1660 hc         1 EQM       0.057200
     57 H8           0.0920     1.1480    -0.8160 hc         1 EQM       0.063200
     58 H8A          0.2240     0.0710     0.5710 hc         1 EQM       0.063200
     59 H9          -0.6460     2.9980     0.7060 h1         1 EQM       0.036200
     60 H9A         -0.6170     1.8740     2.0700 h1         1 EQM       0.036200
     61 H10         -3.1550     2.5150     2.2660 h1         1 EQM       0.047700
     62 H10A        -3.0420     3.4650     0.7840 h1         1 EQM       0.047700
     63 H13         -3.8960    -1.7260     1.8150 h1         1 EQM       0.079700
     64 H15         -1.5810    -2.8830    -1.0220 hc         1 EQM       0.040033
     65 H15A        -1.3960    -4.5250    -0.3900 hc         1 EQM       0.040033
     66 H15B        -2.9380    -4.0250    -1.0990 hc         1 EQM       0.040033
     67 H16         -1.6320    -2.3850     2.7260 hc         1 EQM       0.040033
     68 H16A        -0.6640    -3.6310     1.9200 hc         1 EQM       0.040033
     69 H16B        -0.7520    -2.0110     1.2270 hc         1 EQM       0.040033
     70 H17         -4.0760    -4.8230     1.0710 hc         1 EQM       0.040033
     71 H17A        -2.5210    -5.2240     1.8080 hc         1 EQM       0.040033
     72 H17B        -3.6250    -4.1080     2.6320 hc         1 EQM       0.040033
     73 H19         -8.7210    -2.4950     0.6240 h1         1 EQM       0.047367
     74 H19A        -8.8940    -3.4860    -0.8400 h1         1 EQM       0.047367
     75 H19B        -8.2800    -4.2210     0.6570 h1         1 EQM       0.047367
     76 H20         -5.0810     1.1250     2.7060 ha         1 EQM       0.120500
     77 H21         -7.3320     0.3200     2.0250 ha         1 EQM       0.132000
     78 H23         -6.7360     1.9710    -1.9210 ha         1 EQM       0.132000
     79 H24         -4.4760     2.7690    -1.2490 ha         1 EQM       0.120500
     80 H25          1.9020     0.1580    -1.9430 hc         1 EQM       0.067700
     81 H25A         2.6210     1.7500    -2.0550 hc         1 EQM       0.067700
     82 H27          3.3960    -1.9230    -2.0300 ha         1 EQM       0.117500
     83 H28          5.4300    -2.9060    -3.0680 ha         1 EQM       0.108500
     84 H29          7.2270    -1.4220    -3.9520 ha         1 EQM       0.109000
     85 H30          6.9780     1.0540    -3.8060 ha         1 EQM       0.108500
     86 H31          4.9470     2.0450    -2.7770 ha         1 EQM       0.117500
     87 H33         12.5830     1.4230    -0.9120 ha         1 EQM       0.166000
     88 H33A        11.6270     0.7290     0.5210 ha         1 EQM       0.166000
     89 H35          5.0490     2.0020     3.0190 hc         1 EQM       0.038367
     90 H35A         6.3720     2.4080     4.1170 hc         1 EQM       0.038367
     91 H35B         6.2920     3.1650     2.5160 hc         1 EQM       0.038367
     92 H36         10.9980     0.3810    -2.4960 ha         1 EQM       0.175000
     93 H37          9.9800    -1.4000    -0.3780 h1         1 EQM       0.058700
     94 H37A         9.1810    -0.9810    -1.9170 h1         1 EQM       0.058700
     95 C10         -3.2150     2.4520     1.1720 c3         1 EQM       0.192100
     96 C18         -6.0260    -2.7090     0.6340 c          1 EQM       0.639100
     97 O3          -3.0960    -0.5170    -1.0710 o          1 EQM      -0.566100
     98 C8           0.3020     1.1170     0.2590 c3         1 EQM      -0.077400
     99 N5           8.7220     0.2720    -0.3070 ns         1 EQM      -0.497900
    100 O6           7.1960    -1.3530     0.1330 o          1 EQM      -0.605100
@<TRIPOS>BOND
     1     1    28 1   
     2     2     4 1   
     3     2     5 1   
     4     2    16 1   
     5     2    31 1   
     6     3     5 1   
     7     3     8 1   
     8     3    43 1   
     9     4    44 1   
    10     5     7 2   
    11     6     9 1   
    12     6    17 1   
    13     6    95 1   
    14     8    10 1   
    15     8    39 1   
    16     8    45 1   
    17     9    19 1   
    18     9    46 1   
    19    10    13 1   
    20    10    15 1   
    21    10    40 1   
    22    11    20 1   
    23    11    47 1   
    24    11    96 1   
    25    12    96 2   
    26    13    48 1   
    27    13    49 1   
    28    13    50 1   
    29    14    25 1   
    30    14    96 1   
    31    15    52 1   
    32    15    53 1   
    33    15    54 1   
    34    16    55 1   
    35    16    56 1   
    36    16    98 1   
    37    17    59 1   
    38    17    60 1   
    39    17    98 1   
    40    18    26 ar  
    41    18    30 ar  
    42    18    95 1   
    43    19    20 1   
    44    19    97 2   
    45    20    21 1   
    46    20    63 1   
    47    21    22 1   
    48    21    23 1   
    49    21    24 1   
    50    22    64 1   
    51    22    65 1   
    52    22    66 1   
    53    23    67 1   
    54    23    68 1   
    55    23    69 1   
    56    24    70 1   
    57    24    71 1   
    58    24    72 1   
    59    25    73 1   
    60    25    74 1   
    61    25    75 1   
    62    26    27 ar  
    63    26    76 1   
    64    27    28 ar  
    65    27    77 1   
    66    28    29 ar  
    67    29    30 ar  
    68    29    78 1   
    69    30    79 1   
    70    31    32 1   
    71    31    80 1   
    72    31    81 1   
    73    32    33 ar  
    74    32    37 ar  
    75    33    34 ar  
    76    33    82 1   
    77    34    35 ar  
    78    34    83 1   
    79    35    36 ar  
    80    35    84 1   
    81    36    37 ar  
    82    36    85 1   
    83    37    86 1   
    84    38    41 2   
    85    38    87 1   
    86    38    88 1   
    87    39    99 1   
    88    39   100 2   
    89    40    89 1   
    90    40    90 1   
    91    40    91 1   
    92    41    42 1   
    93    41    92 1   
    94    42    93 1   
    95    42    94 1   
    96    42    99 1   
    97    51    99 1   
    98    57    98 1   
    99    58    98 1   
   100    61    95 1   
   101    62    95 1   
@<TRIPOS>SUBSTRUCTURE
     1 EQM         1 TEMP              0 ****  ****    0 ROOT
