@<TRIPOS>MOLECULE
EQM
  100   101     1     0     0
SMALL
abcg2


@<TRIPOS>ATOM
      1 BR          -8.6530     0.3010    -0.9350 br         1 EQM      -0.104100
      2 C1           2.7720     0.9240     0.0600 c3         1 EQM       0.110000
      3 N1           5.0010     0.6690     0.9810 ns         1 EQM      -0.479900
      4 O1           2.6510    -0.4040     0.5210 oh         1 EQM      -0.653000
      5 C2           4.1230     1.5390     0.4690 c          1 EQM       0.574100
      6 N2          -2.1700     1.5640     0.6080 n3         1 EQM      -0.448600
      7 O2           4.3510     2.7280     0.2910 o          1 EQM      -0.617100
      8 C3           6.3910     0.9640     1.2240 c3         1 EQM       0.040700
      9 N3          -2.3580     0.2390     0.9490 ns         1 EQM      -0.393300
     10 C4           6.7190     1.0910     2.7370 c3         1 EQM      -0.048000
     11 N4          -4.4170    -2.3860     0.0910 ns         1 EQM      -0.488900
     12 O4          -5.5550    -2.5670     2.0570 o          1 EQM      -0.556000
     13 C5           6.3140    -0.1590     3.5180 c3         1 EQM      -0.086100
     14 O5          -6.5850    -2.7890     0.0690 os         1 EQM      -0.447100
     15 C6           8.2180     1.3420     2.9170 c3         1 EQM      -0.086100
     16 C7           1.6350     1.7990     0.6020 c3         1 EQM      -0.102400
     17 C9          -0.8410     2.0300     0.9810 c3         1 EQM       0.158800
     18 C11         -4.5790     1.9030     0.6830 ca         1 EQM      -0.083300
     19 C12         -2.7460    -0.6770     0.0390 c          1 EQM       0.606100
     20 C13         -3.1360    -2.0260     0.6460 c3         1 EQM       0.051700
     21 C14         -2.0670    -3.1340     0.4630 c3         1 EQM      -0.045000
     22 C15         -1.8610    -3.5120    -1.0040 c3         1 EQM      -0.088433
     23 C16         -0.7390    -2.6480     1.0460 c3         1 EQM      -0.088433
     24 C17         -2.5320    -4.3710     1.2350 c3         1 EQM      -0.088433
     25 C19         -7.8140    -3.0620     0.7290 c3         1 EQM       0.170900
     26 C20         -5.4320     1.1780     1.5060 ca         1 EQM      -0.086000
     27 C21         -6.6470     0.6960     1.0370 ca         1 EQM      -0.088000
     28 C22         -7.0030     0.9450    -0.2780 ca         1 EQM      -0.009900
     29 C23         -6.1690     1.6650    -1.1230 ca         1 EQM      -0.088000
     30 C24         -4.9600     2.1320    -0.6350 ca         1 EQM      -0.086000
     31 C25          2.7580     0.8680    -1.4800 c3         1 EQM      -0.018100
     32 C26          3.9170     0.1060    -2.0610 ca         1 EQM      -0.090300
     33 C27          3.8670    -1.2800    -2.1930 ca         1 EQM      -0.096500
     34 C28          4.9530    -1.9870    -2.6900 ca         1 EQM      -0.111000
     35 C29          6.1100    -1.3170    -3.0640 ca         1 EQM      -0.103000
     36 C30          6.1690     0.0640    -2.9450 ca         1 EQM      -0.111000
     37 C31          5.0800     0.7680    -2.4480 ca         1 EQM      -0.096500
     38 C33         11.2830     0.2240    -1.9080 c2         1 EQM      -0.296000
     39 C34          7.2060    -0.1280     0.5300 c          1 EQM       0.588100
     40 C35          5.9550     2.2950     3.2930 c3         1 EQM      -0.086100
     41 C36          9.9610     0.1240    -1.8750 c2         1 EQM      -0.249200
     42 C37          9.2030    -0.6010    -0.8090 c3         1 EQM       0.133200
     43 HN1          4.7290    -0.3030     0.9830 hn         1 EQM       0.348500
     44 HO1          2.3900    -0.3910     1.4490 ho         1 EQM       0.446000
     45 H3           6.6150     1.9290     0.7610 h1         1 EQM       0.079700
     46 HN3         -2.3730    -0.0010     1.9350 hn         1 EQM       0.301500
     47 HN4         -4.5270    -2.3280    -0.9100 hn         1 EQM       0.345500
     48 H5           6.8540    -1.0480     3.1930 hc         1 EQM       0.038367
     49 H5A          6.5290    -0.0130     4.5790 hc         1 EQM       0.038367
     50 H5B          5.2450    -0.3610     3.4290 hc         1 EQM       0.038367
     51 HN5          8.5160     1.2780    -0.1190 hn         1 EQM       0.317500
     52 H6           8.5540     2.2040     2.3340 hc         1 EQM       0.038367
     53 H6A          8.4360     1.5540     3.9650 hc         1 EQM       0.038367
     54 H6B          8.8230     0.4820     2.6260 hc         1 EQM       0.038367
     55 H7           1.7010     1.8000     1.6980 hc         1 EQM       0.057200
     56 H7A          1.7940     2.8320     0.2910 hc         1 EQM       0.057200
     57 H8           0.0760     1.5140    -0.8780 hc         1 EQM       0.063200
     58 H8A          0.1640     0.2530     0.3360 hc         1 EQM       0.063200
     59 H9          -0.8120     3.1040     0.7830 h1         1 EQM       0.036200
     60 H9A         -0.6620     1.9050     2.0610 h1         1 EQM       0.036200
     61 H10         -3.2200     2.3650     2.2760 h1         1 EQM       0.047700
     62 H10A        -3.0670     3.4090     0.8660 h1         1 EQM       0.047700
     63 H13         -3.2800    -1.9020     1.7210 h1         1 EQM       0.079700
     64 H15         -1.4720    -2.6830    -1.5950 hc         1 EQM       0.040033
     65 H15A        -1.1410    -4.3300    -1.0740 hc         1 EQM       0.040033
     66 H15B        -2.7850    -3.8590    -1.4710 hc         1 EQM       0.040033
     67 H16         -0.8440    -2.3170     2.0820 hc         1 EQM       0.040033
     68 H16A        -0.0030    -3.4530     1.0290 hc         1 EQM       0.040033
     69 H16B        -0.3210    -1.8230     0.4690 hc         1 EQM       0.040033
     70 H17         -3.4600    -4.7750     0.8280 hc         1 EQM       0.040033
     71 H17A        -1.7770    -5.1570     1.1740 hc         1 EQM       0.040033
     72 H17B        -2.6960    -4.1500     2.2910 hc         1 EQM       0.040033
     73 H19         -8.1300    -2.2320     1.3600 h1         1 EQM       0.047367
     74 H19A        -8.5490    -3.2050    -0.0590 h1         1 EQM       0.047367
     75 H19B        -7.7560    -3.9680     1.3320 h1         1 EQM       0.047367
     76 H20         -5.1520     0.9780     2.5330 ha         1 EQM       0.120500
     77 H21         -7.2940     0.1340     1.6970 ha         1 EQM       0.132000
     78 H23         -6.4490     1.8600    -2.1500 ha         1 EQM       0.132000
     79 H24         -4.3060     2.6880    -1.2950 ha         1 EQM       0.120500
     80 H25          1.8170     0.4110    -1.7940 hc         1 EQM       0.067700
     81 H25A         2.7560     1.8920    -1.8550 hc         1 EQM       0.067700
     82 H27          2.9670    -1.8110    -1.9080 ha         1 EQM       0.117500
     83 H28          4.8940    -3.0630    -2.7870 ha         1 EQM       0.108500
     84 H29          6.9580    -1.8660    -3.4540 ha         1 EQM       0.109000
     85 H30          7.0600     0.5990    -3.2470 ha         1 EQM       0.108500
     86 H31          5.1370     1.8470    -2.3600 ha         1 EQM       0.117500
     87 H33         11.7910     0.7400    -2.7120 ha         1 EQM       0.166000
     88 H33A        11.9070    -0.2110    -1.1360 ha         1 EQM       0.166000
     89 H35          4.8750     2.1750     3.1960 hc         1 EQM       0.038367
     90 H35A         6.1760     2.4170     4.3550 hc         1 EQM       0.038367
     91 H35B         6.2400     3.2180     2.7840 hc         1 EQM       0.038367
     92 H36          9.3680     0.5770    -2.6650 ha         1 EQM       0.175000
     93 H37          9.8950    -1.0590    -0.0950 h1         1 EQM       0.058700
     94 H37A         8.6210    -1.4090    -1.2560 h1         1 EQM       0.058700
     95 C10         -3.2420     2.3780     1.1760 c3         1 EQM       0.192100
     96 C18         -5.5190    -2.5720     0.8440 c          1 EQM       0.639100
     97 O3          -2.8150    -0.4670    -1.1570 o          1 EQM      -0.566100
     98 C8           0.2460     1.3310     0.1850 c3         1 EQM      -0.077400
     99 N5           8.2840     0.2980    -0.1400 ns         1 EQM      -0.497900
    100 O6           6.8830    -1.3050     0.5980 o          1 EQM      -0.605100
@<TRIPOS>BOND
     1     1    28 1   
     2     2     4 1   
     3     2     5 1   
     4     2    16 1   
     5     2    31 1   
     6     3     5 1   
     7     3     8 1   
     8     3    43 1   
     9     4    44 1   
    10     5     7 2   
    11     6     9 1   
    12     6    17 1   
    13     6    95 1   
    14     8    10 1   
    15     8    39 1   
    16     8    45 1   
    17     9    19 1   
    18     9    46 1   
    19    10    13 1   
    20    10    15 1   
    21    10    40 1   
    22    11    20 1   
    23    11    47 1   
    24    11    96 1   
    25    12    96 2   
    26    13    48 1   
    27    13    49 1   
    28    13    50 1   
    29    14    25 1   
    30    14    96 1   
    31    15    52 1   
    32    15    53 1   
    33    15    54 1   
    34    16    55 1   
    35    16    56 1   
    36    16    98 1   
    37    17    59 1   
    38    17    60 1   
    39    17    98 1   
    40    18    26 ar  
    41    18    30 ar  
    42    18    95 1   
    43    19    20 1   
    44    19    97 2   
    45    20    21 1   
    46    20    63 1   
    47    21    22 1   
    48    21    23 1   
    49    21    24 1   
    50    22    64 1   
    51    22    65 1   
    52    22    66 1   
    53    23    67 1   
    54    23    68 1   
    55    23    69 1   
    56    24    70 1   
    57    24    71 1   
    58    24    72 1   
    59    25    73 1   
    60    25    74 1   
    61    25    75 1   
    62    26    27 ar  
    63    26    76 1   
    64    27    28 ar  
    65    27    77 1   
    66    28    29 ar  
    67    29    30 ar  
    68    29    78 1   
    69    30    79 1   
    70    31    32 1   
    71    31    80 1   
    72    31    81 1   
    73    32    33 ar  
    74    32    37 ar  
    75    33    34 ar  
    76    33    82 1   
    77    34    35 ar  
    78    34    83 1   
    79    35    36 ar  
    80    35    84 1   
    81    36    37 ar  
    82    36    85 1   
    83    37    86 1   
    84    38    41 2   
    85    38    87 1   
    86    38    88 1   
    87    39    99 1   
    88    39   100 2   
    89    40    89 1   
    90    40    90 1   
    91    40    91 1   
    92    41    42 1   
    93    41    92 1   
    94    42    93 1   
    95    42    94 1   
    96    42    99 1   
    97    51    99 1   
    98    57    98 1   
    99    58    98 1   
   100    61    95 1   
   101    62    95 1   
@<TRIPOS>SUBSTRUCTURE
     1 EQM         1 TEMP              0 ****  ****    0 ROOT
