@<TRIPOS>MOLECULE
EQN
   50    52     1     0     0
SMALL
No Charge or Current Charge


@<TRIPOS>ATOM
      1 CAA          4.3540     2.3330    -1.5300 c3         1 EQN      -0.082600
      2 CAB          4.0110     2.9390     0.8830 c3         1 EQN      -0.082600
      3 CAC          5.3140    -1.7600     1.5090 c3         1 EQN      -0.080600
      4 CAD          5.1680    -2.4780    -0.8930 c3         1 EQN      -0.080600
      5 OAE         -7.9610    -1.5560     0.0500 o          1 EQN      -0.722000
      6 OAF         -0.8960     1.8130    -0.1420 o          1 EQN      -0.595100
      7 OAG         -8.0260     0.5870    -0.0740 o          1 EQN      -0.722000
      8 CAH         -3.7230    -1.5620     0.0750 ca         1 EQN      -0.171500
      9 CAI         -3.7940     0.8550    -0.0650 ca         1 EQN      -0.171500
     10 CAJ         -5.1270    -1.6090     0.0700 ca         1 EQN      -0.068500
     11 CAK         -5.2000     0.8120    -0.0710 ca         1 EQN      -0.068500
     12 CAL          1.1230    -1.2440     0.1190 ca         1 EQN      -0.089000
     13 CAM          2.4620    -1.6570     0.1420 ca         1 EQN      -0.124000
     14 CAN          1.8570     1.0550    -0.0660 ca         1 EQN      -0.063000
     15 CAO          5.7160     1.1850     0.3090 c6         1 EQN      -0.066400
     16 CAP          6.0000    -0.1630    -0.3720 c6         1 EQN      -0.066400
     17 NAQ         -1.6160    -0.3750     0.0190 ns         1 EQN      -0.128000
     18 CAR         -7.4080    -0.4670    -0.0100 c          1 EQN       0.713600
     19 CAT         -3.0400    -0.3350     0.0080 ca         1 EQN      -0.071000
     20 CAU         -5.8880    -0.4210    -0.0040 ca         1 EQN      -0.144600
     21 CAV          0.7990     0.1240     0.0010 ca         1 EQN      -0.143600
     22 CAW          3.5250    -0.7310     0.0500 ca         1 EQN      -0.048300
     23 CAX          3.2150     0.6580    -0.0170 ca         1 EQN      -0.072300
     24 CAY          4.3210     1.7490    -0.0830 c6         1 EQN       0.002300
     25 CAZ          4.9870    -1.2570     0.0680 c6         1 EQN      -0.000700
     26 HAA          5.1520     3.0760    -1.6470 hc         1 EQN       0.036200
     27 HAAA         4.5170     1.5500    -2.2800 hc         1 EQN       0.036200
     28 HAAB         3.4090     2.8270    -1.7870 hc         1 EQN       0.036200
     29 HAB          3.1290     3.5150     0.5810 hc         1 EQN       0.036200
     30 HABA         3.8380     2.5820     1.9060 hc         1 EQN       0.036200
     31 HABB         4.8480     3.6470     0.9210 hc         1 EQN       0.036200
     32 HAC          6.3540    -2.0990     1.5920 hc         1 EQN       0.033867
     33 HACA         5.1610    -0.9740     2.2580 hc         1 EQN       0.033867
     34 HACB         4.6730    -2.6020     1.7970 hc         1 EQN       0.033867
     35 HAD          4.6150    -3.3640    -0.5630 hc         1 EQN       0.033867
     36 HADA         4.8290    -2.2340    -1.9070 hc         1 EQN       0.033867
     37 HADB         6.2220    -2.7740    -0.9620 hc         1 EQN       0.033867
     38 HAH         -3.1620    -2.4930     0.1320 ha         1 EQN       0.102000
     39 HAI         -3.3150     1.8270    -0.1170 ha         1 EQN       0.102000
     40 HAJ         -5.6230    -2.5760     0.1230 ha         1 EQN       0.128500
     41 HAK         -5.7540     1.7470    -0.1270 ha         1 EQN       0.128500
     42 HAL          0.3520    -2.0070     0.1890 ha         1 EQN       0.118000
     43 HAM          2.6630    -2.7200     0.2400 ha         1 EQN       0.108000
     44 HAN          1.6130     2.1090    -0.1640 ha         1 EQN       0.134000
     45 HAO          5.7830     1.0670     1.3990 hc         1 EQN       0.040200
     46 HAOA         6.5030     1.9040     0.0420 hc         1 EQN       0.040200
     47 HAP          5.9700    -0.0370    -1.4620 hc         1 EQN       0.039200
     48 HAPA         7.0260    -0.4830    -0.1400 hc         1 EQN       0.039200
     49 HNAQ        -1.2440    -1.3120     0.0900 hn         1 EQN       0.139000
     50 CAS         -0.6400     0.6160    -0.0480 c          1 EQN       0.610700
@<TRIPOS>BOND
     1     1    24 1   
     2     1    26 1   
     3     1    27 1   
     4     1    28 1   
     5     2    24 1   
     6     2    29 1   
     7     2    30 1   
     8     2    31 1   
     9     3    25 1   
    10     3    32 1   
    11     3    33 1   
    12     3    34 1   
    13     4    25 1   
    14     4    35 1   
    15     4    36 1   
    16     4    37 1   
    17     5    18 1   
    18     6    50 2   
    19     7    18 1   
    20     8    10 ar  
    21     8    19 ar  
    22     8    38 1   
    23     9    11 ar  
    24     9    19 ar  
    25     9    39 1   
    26    10    20 ar  
    27    10    40 1   
    28    11    20 ar  
    29    11    41 1   
    30    12    13 ar  
    31    12    21 ar  
    32    12    42 1   
    33    13    22 ar  
    34    13    43 1   
    35    14    21 ar  
    36    14    23 ar  
    37    14    44 1   
    38    15    16 1   
    39    15    24 1   
    40    15    45 1   
    41    15    46 1   
    42    16    25 1   
    43    16    47 1   
    44    16    48 1   
    45    17    19 1   
    46    17    49 1   
    47    17    50 1   
    48    18    20 1   
    49    21    50 1   
    50    22    23 ar  
    51    22    25 1   
    52    23    24 1   
@<TRIPOS>SUBSTRUCTURE
     1 EQN         1 TEMP              0 ****  ****    0 ROOT
