@<TRIPOS>MOLECULE
EQN
   50    52     1     0     0
SMALL
abcg2


@<TRIPOS>ATOM
      1 CAA          4.1330     2.0710    -1.7330 c3         1 EQN      -0.082600
      2 CAB          3.8620     2.9530     0.5860 c3         1 EQN      -0.082600
      3 CAC          5.3870    -1.5530     1.6200 c3         1 EQN      -0.080600
      4 CAD          5.1430    -2.4850    -0.6830 c3         1 EQN      -0.080600
      5 OAE         -7.8270    -1.2410    -0.7020 o          1 EQN      -0.722000
      6 OAF         -0.8660     1.6140     0.6190 o          1 EQN      -0.595100
      7 OAG         -7.8210     0.7140     0.3680 o          1 EQN      -0.722000
      8 CAH         -3.6450    -1.3930    -0.6060 ca         1 EQN      -0.171500
      9 CAI         -3.6340     0.7290     0.5210 ca         1 EQN      -0.171500
     10 CAJ         -5.0270    -1.3680    -0.6450 ca         1 EQN      -0.068500
     11 CAK         -5.0210     0.7320     0.4730 ca         1 EQN      -0.068500
     12 CAL          1.1850    -1.3420     0.4500 ca         1 EQN      -0.089000
     13 CAM          2.5210    -1.6880     0.4150 ca         1 EQN      -0.124000
     14 CAN          1.8130     0.9280     0.0510 ca         1 EQN      -0.063000
     15 CAO          5.5840     1.2340     0.1440 c6         1 EQN      -0.066400
     16 CAP          5.9010    -0.1450    -0.3970 c6         1 EQN      -0.066400
     17 NAQ         -1.5340    -0.4640    -0.0160 ns         1 EQN      -0.128000
     18 CAR         -7.2650    -0.2740    -0.1510 c          1 EQN       0.713600
     19 CAT         -2.9270    -0.3440    -0.0240 ca         1 EQN      -0.071000
     20 CAU         -5.7460    -0.3030    -0.1070 ca         1 EQN      -0.144600
     21 CAV          0.8140    -0.0130     0.2550 ca         1 EQN      -0.143600
     22 CAW          3.5310    -0.7500     0.1810 ca         1 EQN      -0.048300
     23 CAX          3.1660     0.5940     0.0140 ca         1 EQN      -0.072300
     24 CAY          4.1790     1.7020    -0.2430 c6         1 EQN       0.002300
     25 CAZ          4.9780    -1.2260     0.1750 c6         1 EQN      -0.000700
     26 HAA          4.8460     2.8710    -1.9500 hc         1 EQN       0.036200
     27 HAAA         4.3800     1.2240    -2.3740 hc         1 EQN       0.036200
     28 HAAB         3.1400     2.4200    -2.0190 hc         1 EQN       0.036200
     29 HAB          2.9330     3.4380     0.2860 hc         1 EQN       0.036200
     30 HABA         3.7920     2.7170     1.6490 hc         1 EQN       0.036200
     31 HABB         4.6600     3.6870     0.4600 hc         1 EQN       0.036200
     32 HAC          6.4200    -1.9040     1.6490 hc         1 EQN       0.033867
     33 HACA         5.3070    -0.6830     2.2730 hc         1 EQN       0.033867
     34 HACB         4.7560    -2.3380     2.0400 hc         1 EQN       0.033867
     35 HAD          4.6200    -3.3500    -0.2760 hc         1 EQN       0.033867
     36 HADA         4.7820    -2.3210    -1.7000 hc         1 EQN       0.033867
     37 HADB         6.2000    -2.7500    -0.7440 hc         1 EQN       0.033867
     38 HAH         -3.1130    -2.2360    -1.0310 ha         1 EQN       0.102000
     39 HAI         -3.1220     1.5570     0.9820 ha         1 EQN       0.102000
     40 HAJ         -5.5560    -2.1930    -1.1030 ha         1 EQN       0.128500
     41 HAK         -5.5510     1.5710     0.9030 ha         1 EQN       0.128500
     42 HAL          0.4540    -2.1130     0.6610 ha         1 EQN       0.118000
     43 HAM          2.7840    -2.7230     0.5890 ha         1 EQN       0.108000
     44 HAN          1.5190     1.9610    -0.0900 ha         1 EQN       0.134000
     45 HAO          5.6790     1.2360     1.2350 hc         1 EQN       0.040200
     46 HAOA         6.3120     1.9620    -0.2250 hc         1 EQN       0.040200
     47 HAP          5.8190    -0.1400    -1.4880 hc         1 EQN       0.039200
     48 HAPA         6.9380    -0.4130    -0.1740 hc         1 EQN       0.039200
     49 HNAQ        -1.1910    -1.3370    -0.3870 hn         1 EQN       0.139000
     50 CAS         -0.5990     0.4640     0.3100 c          1 EQN       0.610700
@<TRIPOS>BOND
     1     1    24 1   
     2     1    26 1   
     3     1    27 1   
     4     1    28 1   
     5     2    24 1   
     6     2    29 1   
     7     2    30 1   
     8     2    31 1   
     9     3    25 1   
    10     3    32 1   
    11     3    33 1   
    12     3    34 1   
    13     4    25 1   
    14     4    35 1   
    15     4    36 1   
    16     4    37 1   
    17     5    18 1   
    18     6    50 2   
    19     7    18 1   
    20     8    10 ar  
    21     8    19 ar  
    22     8    38 1   
    23     9    11 ar  
    24     9    19 ar  
    25     9    39 1   
    26    10    20 ar  
    27    10    40 1   
    28    11    20 ar  
    29    11    41 1   
    30    12    13 ar  
    31    12    21 ar  
    32    12    42 1   
    33    13    22 ar  
    34    13    43 1   
    35    14    21 ar  
    36    14    23 ar  
    37    14    44 1   
    38    15    16 1   
    39    15    24 1   
    40    15    45 1   
    41    15    46 1   
    42    16    25 1   
    43    16    47 1   
    44    16    48 1   
    45    17    19 1   
    46    17    49 1   
    47    17    50 1   
    48    18    20 1   
    49    21    50 1   
    50    22    23 ar  
    51    22    25 1   
    52    23    24 1   
@<TRIPOS>SUBSTRUCTURE
     1 EQN         1 TEMP              0 ****  ****    0 ROOT
