@<TRIPOS>MOLECULE
EQO
   54    57     1     0     0
SMALL
No Charge or Current Charge


@<TRIPOS>ATOM
      1 CAA          4.4240     3.6080    -1.5560 c3         1 EQO      -0.081100
      2 CAB          3.8120     5.2020     0.2850 c3         1 EQO      -0.081100
      3 OAC         -8.7250    -0.7820    -0.0990 o          1 EQO      -0.717000
      4 OAD         -7.7120    -2.6410     0.2620 o          1 EQO      -0.717000
      5 CAE          3.7310    -0.5960     0.3290 cg         1 EQO      -0.130300
      6 CAF          3.6730    -1.8070     0.1960 ch         1 EQO      -0.118000
      7 CAG         -2.5580     1.3840    -0.1120 ce         1 EQO      -0.083200
      8 CAH         -1.2890     0.9170     0.0720 cf         1 EQO      -0.226200
      9 CAI          4.8720     1.4880     0.7430 c2         1 EQO      -0.192200
     10 CAJ          3.4000    -6.0140    -0.2750 ca         1 EQO      -0.107000
     11 CAK          4.6350    -5.4210     0.0410 ca         1 EQO      -0.113500
     12 CAL          2.2570    -5.2120    -0.4350 ca         1 EQO      -0.113500
     13 CAM          4.7260    -4.0260     0.1980 ca         1 EQO      -0.089000
     14 CAN          2.3470    -3.8180    -0.2790 ca         1 EQO      -0.089000
     15 CAO         -5.0580     1.3480    -0.2440 ca         1 EQO      -0.115000
     16 CAP         -3.9130    -0.7490     0.1620 ca         1 EQO      -0.115000
     17 CAQ          0.0710     3.0180    -0.2510 ca         1 EQO      -0.107000
     18 CAR         -6.2960     0.6840    -0.2040 ca         1 EQO      -0.098000
     19 CAS         -5.1500    -1.4160     0.2030 ca         1 EQO      -0.098000
     20 CAT          1.3090     3.6770    -0.2850 ca         1 EQO      -0.109000
     21 CAU          1.1940     0.9350     0.2560 ca         1 EQO      -0.094000
     22 CAV          4.8980     2.9980     0.8790 c6         1 EQO      -0.036200
     23 CAW         -7.7020    -1.4330     0.0650 c          1 EQO       0.710600
     24 CAX          3.7320     0.8320     0.4520 ce         1 EQO       0.086100
     25 CAY          3.5820    -3.2200     0.0380 ca         1 EQO       0.034000
     26 CAZ         -3.8540     0.6420    -0.0610 ca         1 EQO      -0.115800
     27 CBA         -0.0010     1.6410     0.0250 ca         1 EQO      -0.017800
     28 CBB         -6.3620    -0.7110     0.0210 ca         1 EQO      -0.108600
     29 CBC          2.4520     1.5830     0.2210 ca         1 EQO      -0.046800
     30 CBD          2.5120     2.9780    -0.0350 ca         1 EQO      -0.075300
     31 CBE          3.8940     3.6880    -0.0930 c6         1 EQO       0.006300
     32 HAA          5.4040     4.0900    -1.6560 hc         1 EQO       0.034867
     33 HAAA         4.5340     2.5680    -1.8860 hc         1 EQO       0.034867
     34 HAAB         3.7390     4.1000    -2.2560 hc         1 EQO       0.034867
     35 HAB          3.2660     5.7900    -0.4620 hc         1 EQO       0.034867
     36 HABA         3.3150     5.3440     1.2530 hc         1 EQO       0.034867
     37 HABB         4.8120     5.6460     0.3630 hc         1 EQO       0.034867
     38 HAG         -2.6830     2.4450    -0.3250 ha         1 EQO       0.156000
     39 HAH         -1.1780    -0.1450     0.2880 ha         1 EQO       0.175000
     40 HAI          5.8110     0.9570     0.9020 ha         1 EQO       0.178000
     41 HAJ          3.3300    -7.0930    -0.3960 ha         1 EQO       0.110000
     42 HAK          5.5200    -6.0400     0.1650 ha         1 EQO       0.113500
     43 HAL          1.3010    -5.6710    -0.6800 ha         1 EQO       0.113500
     44 HAM          5.6840    -3.5720     0.4430 ha         1 EQO       0.120500
     45 HAN          1.4590    -3.2020    -0.4040 ha         1 EQO       0.120500
     46 HAO         -5.0400     2.4210    -0.4180 ha         1 EQO       0.086500
     47 HAP         -3.0070    -1.3300     0.3050 ha         1 EQO       0.086500
     48 HAQ         -0.8290     3.5940    -0.4450 ha         1 EQO       0.114000
     49 HAR         -7.2070     1.2600    -0.3490 ha         1 EQO       0.129000
     50 HAS         -5.1630    -2.4900     0.3770 ha         1 EQO       0.129000
     51 HAT          1.3160     4.7370    -0.5150 ha         1 EQO       0.104000
     52 HAU          1.1350    -0.1290     0.4700 ha         1 EQO       0.119000
     53 HAV          4.6430     3.2540     1.9170 hc         1 EQO       0.049200
     54 HAVA         5.9180     3.3710     0.7110 hc         1 EQO       0.049200
@<TRIPOS>BOND
     1     1    31 1   
     2     1    32 1   
     3     1    33 1   
     4     1    34 1   
     5     2    31 1   
     6     2    35 1   
     7     2    36 1   
     8     2    37 1   
     9     3    23 1   
    10     4    23 1   
    11     5     6 3   
    12     5    24 1   
    13     6    25 1   
    14     7     8 2   
    15     7    26 1   
    16     7    38 1   
    17     8    27 1   
    18     8    39 1   
    19     9    22 1   
    20     9    24 2   
    21     9    40 1   
    22    10    11 ar  
    23    10    12 ar  
    24    10    41 1   
    25    11    13 ar  
    26    11    42 1   
    27    12    14 ar  
    28    12    43 1   
    29    13    25 ar  
    30    13    44 1   
    31    14    25 ar  
    32    14    45 1   
    33    15    18 ar  
    34    15    26 ar  
    35    15    46 1   
    36    16    19 ar  
    37    16    26 ar  
    38    16    47 1   
    39    17    20 ar  
    40    17    27 ar  
    41    17    48 1   
    42    18    28 ar  
    43    18    49 1   
    44    19    28 ar  
    45    19    50 1   
    46    20    30 ar  
    47    20    51 1   
    48    21    27 ar  
    49    21    29 ar  
    50    21    52 1   
    51    22    31 1   
    52    22    53 1   
    53    22    54 1   
    54    23    28 1   
    55    24    29 1   
    56    29    30 ar  
    57    30    31 1   
@<TRIPOS>SUBSTRUCTURE
     1 EQO         1 TEMP              0 ****  ****    0 ROOT
