@<TRIPOS>MOLECULE
EQO
   54    57     1     0     0
SMALL
bcc


@<TRIPOS>ATOM
      1 CAA          4.2450     3.5960    -1.6090 c3         1 EQO      -0.081100
      2 CAB          3.8070     5.1520     0.2900 c3         1 EQO      -0.081100
      3 OAC         -8.5690    -0.7530    -0.2030 o          1 EQO      -0.822300
      4 OAD         -7.4990    -2.6930     0.0400 o          1 EQO      -0.822300
      5 CAE          3.6460    -0.5810     0.2060 cg         1 EQO      -0.130300
      6 CAF          3.5920    -1.7850     0.1240 ch         1 EQO      -0.118000
      7 CAG         -2.4900     1.4060    -0.0100 ce         1 EQO      -0.033200
      8 CAH         -1.2530     0.8990     0.0790 cf         1 EQO      -0.176200
      9 CAI          4.8320     1.4780     0.5860 c2         1 EQO      -0.142200
     10 CAJ          3.3290    -5.9810    -0.1280 ca         1 EQO      -0.125000
     11 CAK          4.5170    -5.3820     0.2730 ca         1 EQO      -0.131500
     12 CAL          2.2320    -5.1920    -0.4500 ca         1 EQO      -0.131500
     13 CAM          4.6110    -4.0020     0.3550 ca         1 EQO      -0.107000
     14 CAN          2.3170    -3.8120    -0.3710 ca         1 EQO      -0.107000
     15 CAO         -4.9470     1.3400    -0.1230 ca         1 EQO      -0.133000
     16 CAP         -3.7960    -0.7490     0.0790 ca         1 EQO      -0.133000
     17 CAQ          0.0630     3.0460    -0.0550 ca         1 EQO      -0.125000
     18 CAR         -6.1610     0.6720    -0.1420 ca         1 EQO      -0.116000
     19 CAS         -5.0100    -1.4110     0.0620 ca         1 EQO      -0.116000
     20 CAT          1.2870     3.6920    -0.0830 ca         1 EQO      -0.127000
     21 CAU          1.1990     0.9590     0.1740 ca         1 EQO      -0.112000
     22 CAV          4.8720     2.9580     0.7370 c6         1 EQO      -0.036200
     23 CAW         -7.5460    -1.4530    -0.0730 c          1 EQO       0.921200
     24 CAX          3.6840     0.8380     0.3070 ce         1 EQO       0.086100
     25 CAY          3.5090    -3.2020     0.0340 ca         1 EQO       0.034000
     26 CAZ         -3.7380     0.6470    -0.0150 ca         1 EQO      -0.115800
     27 CBA         -0.0040     1.6570     0.0670 ca         1 EQO      -0.017800
     28 CBB         -6.2150    -0.7150    -0.0500 ca         1 EQO      -0.108600
     29 CBC          2.4320     1.6030     0.1580 ca         1 EQO      -0.046800
     30 CBD          2.4890     2.9980     0.0160 ca         1 EQO      -0.075300
     31 CBE          3.8370     3.6840    -0.1300 c6         1 EQO       0.006300
     32 HAA          5.2230     4.0580    -1.7650 hc         1 EQO       0.034867
     33 HAAA         4.3050     2.5620    -1.9540 hc         1 EQO       0.034867
     34 HAAB         3.5240     4.1170    -2.2400 hc         1 EQO       0.034867
     35 HAB          3.1770     5.7580    -0.3630 hc         1 EQO       0.034867
     36 HABA         3.4490     5.2710     1.3140 hc         1 EQO       0.034867
     37 HABB         4.8150     5.5680     0.2390 hc         1 EQO       0.034867
     38 HAG         -2.6170     2.4820    -0.0910 ha         1 EQO       0.106000
     39 HAH         -1.1250    -0.1760     0.1620 ha         1 EQO       0.125000
     40 HAI          5.7410     0.9100     0.7420 ha         1 EQO       0.128000
     41 HAJ          3.2600    -7.0590    -0.1900 ha         1 EQO       0.128000
     42 HAK          5.3750    -5.9920     0.5260 ha         1 EQO       0.131500
     43 HAL          1.3050    -5.6540    -0.7650 ha         1 EQO       0.131500
     44 HAM          5.5350    -3.5380     0.6720 ha         1 EQO       0.138500
     45 HAN          1.4610    -3.1990    -0.6240 ha         1 EQO       0.138500
     46 HAO         -4.9310     2.4220    -0.1950 ha         1 EQO       0.104500
     47 HAP         -2.8880    -1.3320     0.1670 ha         1 EQO       0.104500
     48 HAQ         -0.8390     3.6380    -0.1370 ha         1 EQO       0.132000
     49 HAR         -7.0790     1.2370    -0.2320 ha         1 EQO       0.147000
     50 HAS         -5.0270    -2.4900     0.1360 ha         1 EQO       0.147000
     51 HAT          1.2940     4.7690    -0.1900 ha         1 EQO       0.122000
     52 HAU          1.1670    -0.1200     0.2760 ha         1 EQO       0.137000
     53 HAV          4.7100     3.2050     1.7950 hc         1 EQO       0.049200
     54 HAVA         5.8710     3.3310     0.4950 hc         1 EQO       0.049200
@<TRIPOS>BOND
     1     1    31 1   
     2     1    32 1   
     3     1    33 1   
     4     1    34 1   
     5     2    31 1   
     6     2    35 1   
     7     2    36 1   
     8     2    37 1   
     9     3    23 1   
    10     4    23 1   
    11     5     6 3   
    12     5    24 1   
    13     6    25 1   
    14     7     8 2   
    15     7    26 1   
    16     7    38 1   
    17     8    27 1   
    18     8    39 1   
    19     9    22 1   
    20     9    24 2   
    21     9    40 1   
    22    10    11 ar  
    23    10    12 ar  
    24    10    41 1   
    25    11    13 ar  
    26    11    42 1   
    27    12    14 ar  
    28    12    43 1   
    29    13    25 ar  
    30    13    44 1   
    31    14    25 ar  
    32    14    45 1   
    33    15    18 ar  
    34    15    26 ar  
    35    15    46 1   
    36    16    19 ar  
    37    16    26 ar  
    38    16    47 1   
    39    17    20 ar  
    40    17    27 ar  
    41    17    48 1   
    42    18    28 ar  
    43    18    49 1   
    44    19    28 ar  
    45    19    50 1   
    46    20    30 ar  
    47    20    51 1   
    48    21    27 ar  
    49    21    29 ar  
    50    21    52 1   
    51    22    31 1   
    52    22    53 1   
    53    22    54 1   
    54    23    28 1   
    55    24    29 1   
    56    29    30 ar  
    57    30    31 1   
@<TRIPOS>SUBSTRUCTURE
     1 EQO         1 TEMP              0 ****  ****    0 ROOT
