@<TRIPOS>MOLECULE
EQP
   39    39     1     0     0
SMALL
abcg2


@<TRIPOS>ATOM
      1 P1          43.1780    52.2750    45.6060 p5         1 EQP       1.289500
      2 C2          42.8900    51.2940    47.1850 c6         1 EQP      -0.098700
      3 C3          41.5560    51.5900    47.8550 c6         1 EQP      -0.076400
      4 C4          41.4030    50.7950    49.1380 c6         1 EQP       0.154300
      5 C5          42.6190    51.0200    50.0430 c6         1 EQP       0.029700
      6 C6          43.9030    50.7310    49.2470 c6         1 EQP       0.167300
      7 C7          45.1750    50.9480    50.0600 c3         1 EQP       0.198300
      8 C8          46.4360    50.6150    49.2450 c3         1 EQP       0.138300
      9 C9          47.7160    51.0190    49.9590 c3         1 EQP       0.114600
     10 C11         42.4100    49.5500    53.5440 c3         1 EQP      -0.184100
     11 N5          42.5270    50.1820    51.2190 ns         1 EQP      -0.496900
     12 O1P         42.0350    51.8040    44.6990 o          1 EQP      -0.920167
     13 O2P         43.0820    53.7470    46.0260 o          1 EQP      -0.920167
     14 O3P         44.5690    51.8410    45.1290 o          1 EQP      -0.920167
     15 O4          40.2000    51.1620    49.7770 oh         1 EQP      -0.659000
     16 O6          43.9470    51.5450    48.1080 os         1 EQP      -0.384000
     17 O7          45.2080    52.2840    50.5100 oh         1 EQP      -0.681000
     18 O8          46.3890    49.2250    48.9870 oh         1 EQP      -0.660000
     19 O9          47.7270    50.4980    51.2690 oh         1 EQP      -0.723000
     20 O10         42.4300    51.8140    52.7890 o          1 EQP      -0.615100
     21 H2          42.9080    50.2210    46.9220 h1         1 EQP      -0.002300
     22 H32         41.4890    52.6610    48.0740 hc         1 EQP       0.071700
     23 H31         40.7460    51.3490    47.1640 hc         1 EQP       0.071700
     24 H4          41.3840    49.7230    48.8770 h1         1 EQP      -0.002300
     25 H5          42.6270    52.0590    50.3750 h1         1 EQP       0.116700
     26 H6          43.8800    49.6680    48.9540 h1         1 EQP       0.017700
     27 H7          45.1350    50.2530    50.9070 h1         1 EQP       0.017700
     28 H8          46.4130    51.1880    48.3090 h1         1 EQP       0.117700
     29 H92         48.5690    50.6510    49.3690 h1         1 EQP       0.019700
     30 H91         47.7910    52.1130    49.9540 h1         1 EQP       0.019700
     31 H111        41.5640    49.7260    54.2080 hc         1 EQP       0.042700
     32 H113        42.3310    48.5420    53.1420 hc         1 EQP       0.042700
     33 H112        43.3130    49.6060    54.1520 hc         1 EQP       0.042700
     34 HN5         42.5540    49.1840    51.0710 hn         1 EQP       0.291500
     35 HO4         40.0910    50.6020    50.5520 ho         1 EQP       0.404000
     36 HO7         45.7240    52.3150    51.3210 ho         1 EQP       0.473000
     37 HO8         47.0460    49.0200    48.3150 ho         1 EQP       0.434000
     38 HO9         48.5260    50.8020    51.7090 ho         1 EQP       0.476000
     39 C10         42.4540    50.6290    52.4890 c          1 EQP       0.593100
@<TRIPOS>BOND
     1     1     2 1   
     2     1    12 1   
     3     1    13 1   
     4     1    14 1   
     5     2     3 1   
     6     2    16 1   
     7     2    21 1   
     8     3     4 1   
     9     3    22 1   
    10     3    23 1   
    11     4     5 1   
    12     4    15 1   
    13     4    24 1   
    14     5     6 1   
    15     5    11 1   
    16     5    25 1   
    17     6     7 1   
    18     6    16 1   
    19     6    26 1   
    20     7     8 1   
    21     7    17 1   
    22     7    27 1   
    23     8     9 1   
    24     8    18 1   
    25     8    28 1   
    26     9    19 1   
    27     9    29 1   
    28     9    30 1   
    29    10    31 1   
    30    10    32 1   
    31    10    33 1   
    32    10    39 1   
    33    11    34 1   
    34    11    39 1   
    35    15    35 1   
    36    17    36 1   
    37    18    37 1   
    38    19    38 1   
    39    20    39 2   
@<TRIPOS>SUBSTRUCTURE
     1 EQP         1 TEMP              0 ****  ****    0 ROOT
