@<TRIPOS>MOLECULE
EQP
   39    39     1     0     0
SMALL
No Charge or Current Charge


@<TRIPOS>ATOM
      1 P1          42.8950    52.2470    45.4560 p5         1 EQP       1.289500
      2 C2          42.8300    51.3430    47.1220 c6         1 EQP      -0.098700
      3 C3          41.5080    51.6410    47.8770 c6         1 EQP      -0.076400
      4 C4          41.4280    50.8340    49.1940 c6         1 EQP       0.154300
      5 C5          42.6940    51.0600    50.0800 c6         1 EQP       0.029700
      6 C6          43.9700    50.7910    49.2190 c6         1 EQP       0.167300
      7 C7          45.3060    51.0940    50.0000 c3         1 EQP       0.198300
      8 C8          46.5860    50.6510    49.2110 c3         1 EQP       0.138300
      9 C9          47.9230    50.9470    49.9490 c3         1 EQP       0.114600
     10 C11         42.1260    49.3940    53.5340 c3         1 EQP      -0.184100
     11 N5          42.6650    50.1910    51.2850 ns         1 EQP      -0.496900
     12 O1P         41.7550    51.8000    44.6000 o          1 EQP      -0.920167
     13 O2P         42.7990    53.7240    45.6610 o          1 EQP      -0.920167
     14 O3P         44.1760    51.9330    44.7520 o          1 EQP      -0.920167
     15 O4          40.2440    51.2020    49.9090 oh         1 EQP      -0.659000
     16 O6          43.9440    51.6120    48.0210 os         1 EQP      -0.384000
     17 O7          45.4050    52.4910    50.3610 oh         1 EQP      -0.681000
     18 O8          46.5560    49.2330    48.9540 oh         1 EQP      -0.660000
     19 O9          48.0430    50.1270    51.1260 oh         1 EQP      -0.723000
     20 O10         41.1690    51.3690    52.5230 o          1 EQP      -0.615100
     21 H2          42.8530    50.2690    46.8870 h1         1 EQP      -0.002300
     22 H32         41.4370    52.7170    48.0870 hc         1 EQP       0.071700
     23 H31         40.6500    51.3890    47.2400 hc         1 EQP       0.071700
     24 H4          41.3780    49.7660    48.9380 h1         1 EQP      -0.002300
     25 H5          42.7180    52.1120    50.4020 h1         1 EQP       0.116700
     26 H6          43.9730    49.7340    48.9160 h1         1 EQP       0.017700
     27 H7          45.2760    50.4980    50.9220 h1         1 EQP       0.017700
     28 H8          46.5940    51.2080    48.2630 h1         1 EQP       0.117700
     29 H92         48.7570    50.7420    49.2640 h1         1 EQP       0.019700
     30 H91         47.9800    52.0120    50.2130 h1         1 EQP       0.019700
     31 H111        41.5160    49.6070    54.4200 hc         1 EQP       0.042700
     32 H113        41.9230    48.3930    53.1360 hc         1 EQP       0.042700
     33 H112        43.1920    49.3320    53.7810 hc         1 EQP       0.042700
     34 HN5         43.2450    49.3600    51.2920 hn         1 EQP       0.291500
     35 HO4         40.5200    51.2770    50.8560 ho         1 EQP       0.404000
     36 HO7         46.0210    52.5430    51.1250 ho         1 EQP       0.473000
     37 HO8         47.0520    48.8440    49.7100 ho         1 EQP       0.434000
     38 HO9         48.9070    50.3460    51.5480 ho         1 EQP       0.476000
     39 C10         41.9310    50.4190    52.4240 c          1 EQP       0.593100
@<TRIPOS>BOND
     1     1     2 1   
     2     1    12 1   
     3     1    13 1   
     4     1    14 1   
     5     2     3 1   
     6     2    16 1   
     7     2    21 1   
     8     3     4 1   
     9     3    22 1   
    10     3    23 1   
    11     4     5 1   
    12     4    15 1   
    13     4    24 1   
    14     5     6 1   
    15     5    11 1   
    16     5    25 1   
    17     6     7 1   
    18     6    16 1   
    19     6    26 1   
    20     7     8 1   
    21     7    17 1   
    22     7    27 1   
    23     8     9 1   
    24     8    18 1   
    25     8    28 1   
    26     9    19 1   
    27     9    29 1   
    28     9    30 1   
    29    10    31 1   
    30    10    32 1   
    31    10    33 1   
    32    10    39 1   
    33    11    34 1   
    34    11    39 1   
    35    15    35 1   
    36    17    36 1   
    37    18    37 1   
    38    19    38 1   
    39    20    39 2   
@<TRIPOS>SUBSTRUCTURE
     1 EQP         1 TEMP              0 ****  ****    0 ROOT
