@<TRIPOS>MOLECULE
EQR
   33    35     1     0     0
SMALL
No Charge or Current Charge


@<TRIPOS>ATOM
      1 C4         -46.1130    23.1570    21.1590 ca         1 EQR      -0.061000
      2 C14        -44.3140    23.3050    15.8500 c          1 EQR       0.716000
      3 C5         -46.2590    24.5610    21.1540 ca         1 EQR      -0.150000
      4 C6         -46.2390    25.2840    19.9370 ca         1 EQR      -0.125000
      5 C7         -46.0710    24.6150    18.7050 ca         1 EQR      -0.109000
      6 C8         -45.5720    18.7660    18.4670 c          1 EQR       0.604200
      7 C9         -45.6910    18.9800    19.9820 cc         1 EQR       0.290300
      8 C10        -45.6890    17.7260    20.8410 c3         1 EQR      -0.073700
      9 C12        -43.1950    17.2640    20.6130 c          1 EQR       0.726000
     10 N1         -45.7510    22.3290    17.6760 na         1 EQR      -0.139600
     11 N2         -45.7870    21.1670    19.6450 na         1 EQR       0.043800
     12 C3         -45.6390    21.0710    18.2600 cc         1 EQR       0.614300
     13 N3         -45.5720    19.9080    17.6410 nd         1 EQR      -0.758100
     14 C1         -45.9470    22.5130    19.9240 ca         1 EQR      -0.023200
     15 C2         -45.9270    23.2200    18.7290 ca         1 EQR      -0.008200
     16 N4         -45.8220    20.1700    20.6050 nd         1 EQR      -0.427100
     17 O1         -42.9610    16.1260    20.2370 o          1 EQR      -0.744500
     18 O2         -42.5930    18.2480    20.2120 o          1 EQR      -0.744500
     19 O3         -45.4920    17.6790    17.9080 o          1 EQR      -0.602100
     20 O4         -44.2680    24.4670    15.4740 o          1 EQR      -0.713500
     21 O5         -43.3300    22.5840    15.9380 o          1 EQR      -0.713500
     22 H1         -46.1280    22.5930    22.0900 ha         1 EQR       0.160000
     23 H2         -46.3890    25.0920    22.0950 ha         1 EQR       0.096000
     24 H3         -46.3530    26.3660    19.9510 ha         1 EQR       0.088000
     25 H4         -44.1870    18.3760    22.2070 hc         1 EQR       0.013200
     26 H5         -44.5230    16.5740    22.2000 hc         1 EQR       0.013200
     27 H6         -46.0550    25.1700    17.7700 ha         1 EQR       0.121000
     28 H7         -46.4960    17.8060    21.5800 hc         1 EQR       0.047700
     29 H8         -45.9320    16.8370    20.2470 hc         1 EQR       0.047700
     30 H9         -46.4600    23.4700    16.0480 h1         1 EQR       0.046700
     31 H10        -45.8780    21.8500    15.6230 h1         1 EQR       0.046700
     32 C13        -45.6820    22.7250    16.2530 c3         1 EQR      -0.078400
     33 C11        -44.3570    17.4780    21.6010 c3         1 EQR      -0.202400
@<TRIPOS>BOND
     1     1     3 ar  
     2     1    14 ar  
     3     1    22 1   
     4     2    20 1   
     5     2    21 1   
     6     2    32 1   
     7     3     4 ar  
     8     3    23 1   
     9     4     5 ar  
    10     4    24 1   
    11     5    15 ar  
    12     5    27 1   
    13     6     7 1   
    14     6    13 1   
    15     6    19 2   
    16     7     8 1   
    17     7    16 2   
    18     8    28 1   
    19     8    29 1   
    20     8    33 1   
    21     9    17 1   
    22     9    18 1   
    23     9    33 1   
    24    10    12 1   
    25    10    15 1   
    26    10    32 1   
    27    11    12 1   
    28    11    14 1   
    29    11    16 1   
    30    12    13 2   
    31    14    15 ar  
    32    25    33 1   
    33    26    33 1   
    34    30    32 1   
    35    31    32 1   
@<TRIPOS>SUBSTRUCTURE
     1 EQR         1 TEMP              0 ****  ****    0 ROOT
