@<TRIPOS>MOLECULE
EQR
   33    35     1     0     0
SMALL
bcc


@<TRIPOS>ATOM
      1 C4         -45.2000    22.8320    21.1140 ca         1 EQR      -0.079000
      2 C14        -44.8770    23.0340    15.6150 c          1 EQR       0.926600
      3 C5         -45.2260    24.2140    21.2570 ca         1 EQR      -0.168000
      4 C6         -45.5410    25.0460    20.1810 ca         1 EQR      -0.143000
      5 C7         -45.8420    24.5360    18.9240 ca         1 EQR      -0.127000
      6 C8         -45.7470    18.8110    17.9270 c          1 EQR       0.604200
      7 C9         -45.4470    18.8330    19.3930 cc         1 EQR       0.290300
      8 C10        -45.2630    17.5400    20.1140 c3         1 EQR      -0.073700
      9 C12        -43.8310    18.3870    22.0940 c          1 EQR       0.936600
     10 N1         -46.0820    22.3480    17.6890 na         1 EQR      -0.110300
     11 N2         -45.5550    21.0480    19.3680 na         1 EQR       0.043800
     12 C3         -45.8770    21.0660    18.0490 cc         1 EQR       0.614300
     13 N3         -45.9770    20.0000    17.3080 nd         1 EQR      -0.758100
     14 C1         -45.5030    22.3370    19.8620 ca         1 EQR      -0.023200
     15 C2         -45.8190    23.1590    18.7790 ca         1 EQR      -0.008200
     16 N4         -45.3620    19.9250    20.0610 nd         1 EQR      -0.427100
     17 O1         -42.8020    18.1880    21.4180 o          1 EQR      -0.849800
     18 O2         -43.9200    19.0630    23.1390 o          1 EQR      -0.849800
     19 O3         -45.7880    17.7430    17.3320 o          1 EQR      -0.602100
     20 O4         -44.9830    23.4920    14.4650 o          1 EQR      -0.818800
     21 O5         -43.8520    22.7410    16.2500 o          1 EQR      -0.818800
     22 H1         -44.9500    22.1740    21.9350 ha         1 EQR       0.178000
     23 H2         -44.9940    24.6510    22.2180 ha         1 EQR       0.114000
     24 H3         -45.5480    26.1180    20.3270 ha         1 EQR       0.106000
     25 H4         -45.9950    18.1740    22.0400 hc         1 EQR       0.013200
     26 H5         -45.1120    16.6670    22.0420 hc         1 EQR       0.013200
     27 H6         -46.0800    25.1920    18.0970 ha         1 EQR       0.139000
     28 H7         -46.1140    16.8970    19.8710 hc         1 EQR       0.047700
     29 H8         -44.3890    17.0320    19.6950 hc         1 EQR       0.047700
     30 H9         -46.8310    23.7080    16.3290 h1         1 EQR       0.046700
     31 H10        -46.8110    22.0460    15.7840 h1         1 EQR       0.046700
     32 C13        -46.2340    22.7950    16.3270 c3         1 EQR      -0.107700
     33 C11        -45.1180    17.6790    21.6200 c3         1 EQR      -0.202400
@<TRIPOS>BOND
     1     1     3 ar  
     2     1    14 ar  
     3     1    22 1   
     4     2    20 1   
     5     2    21 1   
     6     2    32 1   
     7     3     4 ar  
     8     3    23 1   
     9     4     5 ar  
    10     4    24 1   
    11     5    15 ar  
    12     5    27 1   
    13     6     7 1   
    14     6    13 1   
    15     6    19 2   
    16     7     8 1   
    17     7    16 2   
    18     8    28 1   
    19     8    29 1   
    20     8    33 1   
    21     9    17 1   
    22     9    18 1   
    23     9    33 1   
    24    10    12 1   
    25    10    15 1   
    26    10    32 1   
    27    11    12 1   
    28    11    14 1   
    29    11    16 1   
    30    12    13 2   
    31    14    15 ar  
    32    25    33 1   
    33    26    33 1   
    34    30    32 1   
    35    31    32 1   
@<TRIPOS>SUBSTRUCTURE
     1 EQR         1 TEMP              0 ****  ****    0 ROOT
