@<TRIPOS>MOLECULE
EQT
   17    18     1     0     0
SMALL
bcc


@<TRIPOS>ATOM
      1 C2          -0.6610    -1.5000    -0.0590 cc         1 EQT       0.566800
      2 N4          -2.4000    -0.2610    -0.0080 na         1 EQT      -0.012100
      3 C5          -1.3870     0.6220    -0.0050 ca         1 EQT      -0.003200
      4 C6          -1.3740     2.0220     0.0220 ca         1 EQT      -0.163000
      5 C7          -0.1420     2.6320     0.0080 ca         1 EQT      -0.074000
      6 C8           1.0600     1.8990    -0.0300 ca         1 EQT      -0.174000
      7 C11         -0.2040    -0.1430    -0.0420 ca         1 EQT      -0.259900
      8 N1           0.1030    -2.6390    -0.1690 nv         1 EQT      -0.851800
      9 N3          -1.9690    -1.5390    -0.0330 nd         1 EQT      -0.586100
     10 C9           1.0240     0.5260    -0.0540 ca         1 EQT       0.114400
     11 CL1          2.5010    -0.3760    -0.1000 cl         1 EQT      -0.106400
     12 H12         -3.3870    -0.0700     0.0070 hn         1 EQT       0.328700
     13 H15         -2.2890     2.5980     0.0510 ha         1 EQT       0.142000
     14 H16         -0.0840     3.7130     0.0260 ha         1 EQT       0.135000
     15 H17          2.0070     2.4220    -0.0410 ha         1 EQT       0.149000
     16 H14          0.9760    -2.6090     0.3350 hn         1 EQT       0.397800
     17 H13         -0.4060    -3.4830     0.0480 hn         1 EQT       0.397800
@<TRIPOS>BOND
     1     1     7 1   
     2     1     8 1   
     3     1     9 2   
     4     2     3 1   
     5     2     9 1   
     6     2    12 1   
     7     3     4 ar  
     8     3     7 ar  
     9     4     5 ar  
    10     4    13 1   
    11     5     6 ar  
    12     5    14 1   
    13     6    10 ar  
    14     6    15 1   
    15     7    10 ar  
    16     8    16 1   
    17     8    17 1   
    18    10    11 1   
@<TRIPOS>SUBSTRUCTURE
     1 EQT         1 TEMP              0 ****  ****    0 ROOT
