@<TRIPOS>MOLECULE
EQT
   17    18     1     0     0
SMALL
No Charge or Current Charge


@<TRIPOS>ATOM
      1 C2          -0.6970    -1.4890    -0.0660 cc         1 EQT       0.566800
      2 N4          -2.4480    -0.2810    -0.0160 na         1 EQT      -0.062400
      3 C5          -1.3880     0.6060    -0.0150 ca         1 EQT      -0.003200
      4 C6          -1.3760     2.0050     0.0150 ca         1 EQT      -0.145000
      5 C7          -0.1190     2.6480     0.0130 ca         1 EQT      -0.056000
      6 C8           1.0740     1.8830    -0.0160 ca         1 EQT      -0.156000
      7 C11         -0.2430    -0.1300    -0.0450 ca         1 EQT      -0.259900
      8 N1           0.0860    -2.5750    -0.0960 nv         1 EQT      -0.962200
      9 N3          -2.0160    -1.6190    -0.0470 nd         1 EQT      -0.586100
     10 C9           1.0230     0.4730    -0.0450 ca         1 EQT       0.206000
     11 Cl1          2.5150    -0.4620    -0.0730 cl         1 EQT      -0.198000
     12 H12         -3.4370    -0.0340     0.0030 hn         1 EQT       0.379000
     13 H15         -2.3000     2.5780     0.0380 ha         1 EQT       0.124000
     14 H16         -0.0660     3.7350     0.0350 ha         1 EQT       0.117000
     15 H17          2.0380     2.3850    -0.0150 ha         1 EQT       0.131000
     16 H14          1.0640    -2.4490     0.1360 hn         1 EQT       0.453000
     17 H13         -0.3430    -3.4590     0.1500 hn         1 EQT       0.453000
@<TRIPOS>BOND
     1     1     7 1   
     2     1     8 1   
     3     1     9 2   
     4     2     3 1   
     5     2     9 1   
     6     2    12 1   
     7     3     4 ar  
     8     3     7 ar  
     9     4     5 ar  
    10     4    13 1   
    11     5     6 ar  
    12     5    14 1   
    13     6    10 ar  
    14     6    15 1   
    15     7    10 ar  
    16     8    16 1   
    17     8    17 1   
    18    10    11 1   
@<TRIPOS>SUBSTRUCTURE
     1 EQT         1 TEMP              0 ****  ****    0 ROOT
