@<TRIPOS>MOLECULE
EQU
   38    41     1     0     0
SMALL
No Charge or Current Charge


@<TRIPOS>ATOM
      1 C1           0.0460     0.2130    -4.4920 ca         1 EQU       0.137100
      2 C2          -1.1000     0.1530    -3.6910 ca         1 EQU      -0.148000
      3 C3          -0.9850    -0.0180    -2.2980 ca         1 EQU       0.002000
      4 C4           0.2880    -0.1320    -1.6900 ca         1 EQU      -0.063000
      5 C5           1.4380    -0.0710    -2.5170 ca         1 EQU      -0.061000
      6 C6           1.3140     0.1010    -3.9070 ca         1 EQU      -0.187000
      7 C10         -2.1480    -0.0790    -1.5180 ca         1 EQU      -0.109000
      8 C11         -2.0580    -0.2490    -0.1310 ca         1 EQU      -0.090000
      9 C12         -0.8040    -0.3440     0.5050 ca         1 EQU      -0.072300
     10 C13          0.3850    -0.3030    -0.2800 ca         1 EQU      -0.046300
     11 C16         -0.7140    -0.5910     2.0170 c5         1 EQU      -0.019400
     12 C17          0.5350     0.1630     2.5610 c5         1 EQU      -0.155000
     13 C18          1.7850    -0.5170     1.9500 c6         1 EQU      -0.049400
     14 C19          1.7810    -0.4000     0.3990 c6         1 EQU      -0.034100
     15 C24         -1.8850     0.0080     2.8550 c5         1 EQU      -0.065400
     16 C25         -1.2110     0.1830     4.2620 c5         1 EQU      -0.191400
     17 C26          0.2970    -0.0850     4.0640 c          1 EQU       0.581100
     18 C27          0.6020     1.7110     2.2970 c3         1 EQU      -0.078100
     19 O1          -0.0760     0.3780    -5.8390 oh         1 EQU      -0.533100
     20 O26          1.0370    -0.6690     4.8460 o          1 EQU      -0.510100
     21 H2          -2.0800     0.2390    -4.1530 ha         1 EQU       0.129000
     22 H5           2.4380    -0.1550    -2.1040 ha         1 EQU       0.113000
     23 H6           2.2100     0.1450    -4.5220 ha         1 EQU       0.112000
     24 H10         -3.1270    -0.0030    -1.9850 ha         1 EQU       0.117000
     25 H11         -2.9790    -0.3170     0.4430 ha         1 EQU       0.112000
     26 H16         -0.6380    -1.6690     2.2130 hc         1 EQU       0.059700
     27 H181         2.7080    -0.0890     2.3650 hc         1 EQU       0.052700
     28 H182         1.7940    -1.5810     2.2270 hc         1 EQU       0.052700
     29 H191         2.3560     0.4980     0.1320 hc         1 EQU       0.050200
     30 H192         2.3390    -1.2490    -0.0180 hc         1 EQU       0.050200
     31 H241        -2.2290     0.9700     2.4570 hc         1 EQU       0.052200
     32 H242        -2.7550    -0.6590     2.8900 hc         1 EQU       0.052200
     33 H251        -1.3310     1.2250     4.5770 hc         1 EQU       0.072700
     34 H252        -1.6130    -0.4660     5.0480 hc         1 EQU       0.072700
     35 H271         1.5060     2.1400     2.7480 hc         1 EQU       0.043033
     36 H272         0.6280     1.9570     1.2300 hc         1 EQU       0.043033
     37 H273        -0.2480     2.2560     2.7200 hc         1 EQU       0.043033
     38 HO1          0.8230     0.3960    -6.2320 ho         1 EQU       0.465000
@<TRIPOS>BOND
     1     1     2 ar  
     2     1     6 ar  
     3     1    19 1   
     4     2     3 ar  
     5     2    21 1   
     6     3     4 ar  
     7     3     7 ar  
     8     4     5 ar  
     9     4    10 ar  
    10     5     6 ar  
    11     5    22 1   
    12     6    23 1   
    13     7     8 ar  
    14     7    24 1   
    15     8     9 ar  
    16     8    25 1   
    17     9    10 ar  
    18     9    11 1   
    19    10    14 1   
    20    11    12 1   
    21    11    15 1   
    22    11    26 1   
    23    12    13 1   
    24    12    17 1   
    25    12    18 1   
    26    13    14 1   
    27    13    27 1   
    28    13    28 1   
    29    14    29 1   
    30    14    30 1   
    31    15    16 1   
    32    15    31 1   
    33    15    32 1   
    34    16    17 1   
    35    16    33 1   
    36    16    34 1   
    37    17    20 2   
    38    18    35 1   
    39    18    36 1   
    40    18    37 1   
    41    19    38 1   
@<TRIPOS>SUBSTRUCTURE
     1 EQU         1 TEMP              0 ****  ****    0 ROOT
