@<TRIPOS>MOLECULE
EQU
   38    41     1     0     0
SMALL
bcc


@<TRIPOS>ATOM
      1 C1           0.0740     0.1510    -4.4830 ca         1 EQU       0.137100
      2 C2          -1.0640     0.1310    -3.7170 ca         1 EQU      -0.166000
      3 C3          -0.9860    -0.0110    -2.3150 ca         1 EQU       0.002000
      4 C4           0.2760    -0.1370    -1.6760 ca         1 EQU      -0.063000
      5 C5           1.4270    -0.1130    -2.5010 ca         1 EQU      -0.079000
      6 C6           1.3350     0.0260    -3.8580 ca         1 EQU      -0.205000
      7 C10         -2.1560    -0.0240    -1.5210 ca         1 EQU      -0.127000
      8 C11         -2.0650    -0.1560    -0.1660 ca         1 EQU      -0.108000
      9 C12         -0.8140    -0.2800     0.4800 ca         1 EQU      -0.072300
     10 C13          0.3520    -0.2740    -0.2580 ca         1 EQU      -0.046300
     11 C16         -0.7340    -0.4520     1.9660 c5         1 EQU      -0.019400
     12 C17          0.5390     0.1780     2.5340 c5         1 EQU      -0.155000
     13 C18          1.7270    -0.5340     1.9200 c6         1 EQU      -0.049400
     14 C19          1.7170    -0.3540     0.3950 c6         1 EQU      -0.034100
     15 C24         -1.8500     0.0590     2.8760 c5         1 EQU      -0.065400
     16 C25         -1.1960    -0.0160     4.2630 c5         1 EQU      -0.191400
     17 C26          0.3060     0.0070     4.0200 c          1 EQU       0.581100
     18 C27          0.6150     1.6970     2.3060 c3         1 EQU      -0.078100
     19 O1          -0.0410     0.2890    -5.8190 oh         1 EQU      -0.494100
     20 O26          1.1590    -0.0830     4.8700 o          1 EQU      -0.510100
     21 H2          -2.0360     0.2300    -4.1880 ha         1 EQU       0.147000
     22 H5           2.4110    -0.2070    -2.0630 ha         1 EQU       0.131000
     23 H6           2.2370     0.0410    -4.4600 ha         1 EQU       0.130000
     24 H10         -3.1230     0.0770    -1.9990 ha         1 EQU       0.135000
     25 H11         -2.9670    -0.1620     0.4330 ha         1 EQU       0.130000
     26 H16         -0.6500    -1.5320     2.1610 hc         1 EQU       0.059700
     27 H181         2.6740    -0.1670     2.3220 hc         1 EQU       0.052700
     28 H182         1.6670    -1.5980     2.1660 hc         1 EQU       0.052700
     29 H191         2.2650     0.5570     0.1340 hc         1 EQU       0.050200
     30 H192         2.2900    -1.1700    -0.0530 hc         1 EQU       0.050200
     31 H241        -2.1370     1.0800     2.6210 hc         1 EQU       0.052200
     32 H242        -2.7500    -0.5540     2.8190 hc         1 EQU       0.052200
     33 H251        -1.4930     0.7850     4.9430 hc         1 EQU       0.072700
     34 H252        -1.4430    -0.9560     4.7650 hc         1 EQU       0.072700
     35 H271         1.5490     2.0860     2.7170 hc         1 EQU       0.043033
     36 H272         0.5900     1.9440     1.2450 hc         1 EQU       0.043033
     37 H273        -0.2040     2.2390     2.7820 hc         1 EQU       0.043033
     38 HO1          0.8290     0.2920    -6.2330 ho         1 EQU       0.426000
@<TRIPOS>BOND
     1     1     2 ar  
     2     1     6 ar  
     3     1    19 1   
     4     2     3 ar  
     5     2    21 1   
     6     3     4 ar  
     7     3     7 ar  
     8     4     5 ar  
     9     4    10 ar  
    10     5     6 ar  
    11     5    22 1   
    12     6    23 1   
    13     7     8 ar  
    14     7    24 1   
    15     8     9 ar  
    16     8    25 1   
    17     9    10 ar  
    18     9    11 1   
    19    10    14 1   
    20    11    12 1   
    21    11    15 1   
    22    11    26 1   
    23    12    13 1   
    24    12    17 1   
    25    12    18 1   
    26    13    14 1   
    27    13    27 1   
    28    13    28 1   
    29    14    29 1   
    30    14    30 1   
    31    15    16 1   
    32    15    31 1   
    33    15    32 1   
    34    16    17 1   
    35    16    33 1   
    36    16    34 1   
    37    17    20 2   
    38    18    35 1   
    39    18    36 1   
    40    18    37 1   
    41    19    38 1   
@<TRIPOS>SUBSTRUCTURE
     1 EQU         1 TEMP              0 ****  ****    0 ROOT
