@<TRIPOS>MOLECULE
EQV
   49    51     1     0     0
SMALL
abcg2


@<TRIPOS>ATOM
      1 C01          3.0940     3.3840     0.4300 c3         1 EQV      -0.073100
      2 C02          2.9390     2.0150    -0.2220 c5         1 EQV      -0.047700
      3 C03          4.2000     1.1370    -0.1200 c5         1 EQV       0.159300
      4 C04          3.9520     0.2700     1.1070 c5         1 EQV      -0.096400
      5 C05          2.4800    -0.1350     0.9570 c5         1 EQV       0.014500
      6 C06          1.8350     1.1880     0.4830 c5         1 EQV      -0.100700
      7 C07          0.6310     0.9380    -0.3940 c6         1 EQV       0.393300
      8 O08          0.9500     0.1150    -1.4920 os         1 EQV      -0.396100
      9 C09          1.6130    -1.0310    -1.1760 c2         1 EQV      -0.067900
     10 C10          2.3010    -1.2350    -0.0520 ce         1 EQV      -0.256400
     11 C11          2.8860    -2.6080     0.2170 c          1 EQV       0.715200
     12 O12          2.8800    -3.4380    -0.7160 o          1 EQV      -0.726000
     13 O13          3.3120    -2.8030     1.3740 o          1 EQV      -0.726000
     14 O14         -0.3340     0.3140     0.4110 os         1 EQV      -0.463000
     15 C15         -1.5890     0.0900    -0.1370 c6         1 EQV       0.360300
     16 C16         -2.0910    -1.2490     0.3940 c6         1 EQV       0.119300
     17 C17         -3.5230    -1.4650    -0.0690 c6         1 EQV       0.141300
     18 C18         -4.3880    -0.2610     0.2940 c6         1 EQV       0.138300
     19 C19         -3.7390     1.0230    -0.2280 c6         1 EQV       0.183300
     20 O20         -2.4260     1.1300     0.2850 os         1 EQV      -0.465000
     21 C21         -4.5050     2.2590     0.1950 c3         1 EQV       0.169600
     22 O22         -3.9110     3.3860    -0.4040 oh         1 EQV      -0.707000
     23 O23         -5.6690    -0.3650    -0.2760 oh         1 EQV      -0.728000
     24 O24         -4.1120    -2.5990     0.5240 oh         1 EQV      -0.676000
     25 O25         -1.3100    -2.3140    -0.0880 oh         1 EQV      -0.728000
     26 O26          5.3680     1.9220    -0.0710 oh         1 EQV      -0.674000
     27 H1           3.8370     3.9990    -0.0770 hc         1 EQV       0.027367
     28 H2           2.1450     3.9230     0.3960 hc         1 EQV       0.027367
     29 H3           3.3830     3.3030     1.4800 hc         1 EQV       0.027367
     30 H4           2.6870     2.1750    -1.2750 hc         1 EQV       0.053700
     31 H5           4.2300     0.4790    -1.0000 h1         1 EQV       0.050700
     32 H6           4.6250    -0.5830     1.1800 hc         1 EQV       0.056200
     33 H7           4.0750     0.8720     2.0130 hc         1 EQV       0.056200
     34 H8           2.0690    -0.4490     1.9190 hc         1 EQV       0.078700
     35 H10          1.4900     1.7470     1.3570 hc         1 EQV       0.059700
     36 H13          0.2410     1.8630    -0.8340 h2         1 EQV       0.064700
     37 H15          1.5130    -1.7830    -1.9480 h4         1 EQV       0.227000
     38 H17         -1.5530     0.0570    -1.2380 h2         1 EQV       0.050700
     39 H18         -2.0750    -1.2030     1.4950 h1         1 EQV       0.061700
     40 H19         -3.5200    -1.5580    -1.1660 h1         1 EQV       0.049700
     41 H20         -4.4470    -0.1940     1.3920 h1         1 EQV       0.052700
     42 H21         -3.7130     0.9790    -1.3290 h1         1 EQV       0.056700
     43 H22         -5.5490     2.1390    -0.1120 h1         1 EQV       0.030700
     44 H23         -4.4960     2.3250     1.2920 h1         1 EQV       0.030700
     45 H24         -4.4630     4.1490    -0.2100 ho         1 EQV       0.494000
     46 H25         -6.0820    -1.1670     0.0610 ho         1 EQV       0.519000
     47 H26         -3.7250    -3.3880     0.1330 ho         1 EQV       0.468000
     48 H27         -0.4040    -2.1950     0.2180 ho         1 EQV       0.554000
     49 H28          6.1240     1.3270    -0.0650 ho         1 EQV       0.439000
@<TRIPOS>BOND
     1     1     2 1   
     2     1    27 1   
     3     1    28 1   
     4     1    29 1   
     5     2     3 1   
     6     2     6 1   
     7     2    30 1   
     8     3     4 1   
     9     3    26 1   
    10     3    31 1   
    11     4     5 1   
    12     4    32 1   
    13     4    33 1   
    14     5     6 1   
    15     5    10 1   
    16     5    34 1   
    17     6     7 1   
    18     6    35 1   
    19     7     8 1   
    20     7    14 1   
    21     7    36 1   
    22     8     9 1   
    23     9    10 2   
    24     9    37 1   
    25    10    11 1   
    26    11    12 1   
    27    11    13 1   
    28    14    15 1   
    29    15    16 1   
    30    15    20 1   
    31    15    38 1   
    32    16    17 1   
    33    16    25 1   
    34    16    39 1   
    35    17    18 1   
    36    17    24 1   
    37    17    40 1   
    38    18    19 1   
    39    18    23 1   
    40    18    41 1   
    41    19    20 1   
    42    19    21 1   
    43    19    42 1   
    44    21    22 1   
    45    21    43 1   
    46    21    44 1   
    47    22    45 1   
    48    23    46 1   
    49    24    47 1   
    50    25    48 1   
    51    26    49 1   
@<TRIPOS>SUBSTRUCTURE
     1 EQV         1 TEMP              0 ****  ****    0 ROOT
