@<TRIPOS>MOLECULE
EQV
   49    51     1     0     0
SMALL
No Charge or Current Charge


@<TRIPOS>ATOM
      1 C01          3.0860     3.1840     1.4120 c3         1 EQV      -0.073100
      2 C02          2.6520     2.2330     0.2580 c5         1 EQV      -0.047700
      3 C03          3.8020     1.5420    -0.5340 c5         1 EQV       0.159300
      4 C04          4.2550     0.4710     0.4860 c5         1 EQV      -0.096400
      5 C05          2.8980    -0.1600     0.9540 c5         1 EQV       0.014500
      6 C06          1.8230     0.9960     0.7540 c5         1 EQV      -0.100700
      7 C07          0.5890     0.6630    -0.1390 c6         1 EQV       0.393300
      8 O08          0.9890    -0.0660    -1.3180 os         1 EQV      -0.396100
      9 C09          1.7500    -1.1840    -1.1200 c2         1 EQV      -0.067900
     10 C10          2.6000    -1.2840    -0.0730 ce         1 EQV      -0.256400
     11 C11          3.3740    -2.5590     0.2070 c          1 EQV       0.715200
     12 O12          3.2280    -3.4920    -0.5680 o          1 EQV      -0.726000
     13 O13          4.0980    -2.6370     1.1900 o          1 EQV      -0.726000
     14 O14         -0.3410    -0.1440     0.6070 os         1 EQV      -0.463000
     15 C15         -1.6280    -0.2730    -0.0110 c6         1 EQV       0.360300
     16 C16         -2.4500    -1.3900     0.7100 c6         1 EQV       0.119300
     17 C17         -3.8460    -1.4880     0.0340 c6         1 EQV       0.141300
     18 C18         -4.5560    -0.1000     0.0700 c6         1 EQV       0.138300
     19 C19         -3.6240     0.9810    -0.5720 c6         1 EQV       0.183300
     20 O20         -2.3320     0.9790     0.0960 os         1 EQV      -0.465000
     21 C21         -4.2270     2.4220    -0.4800 c3         1 EQV       0.169600
     22 O22         -3.3630     3.4430    -1.0210 oh         1 EQV      -0.707000
     23 O23         -5.8300    -0.1910    -0.5950 oh         1 EQV      -0.728000
     24 O24         -4.6470    -2.4900     0.6850 oh         1 EQV      -0.676000
     25 O25         -1.7760    -2.6710     0.6920 oh         1 EQV      -0.728000
     26 O26          4.8600     2.4360    -0.8840 oh         1 EQV      -0.674000
     27 H1           3.7150     4.0010     1.0400 hc         1 EQV       0.027367
     28 H2           2.2080     3.6410     1.8830 hc         1 EQV       0.027367
     29 H3           3.6410     2.6620     2.1990 hc         1 EQV       0.027367
     30 H4           2.0570     2.8550    -0.4210 hc         1 EQV       0.053700
     31 H5           3.4070     1.0650    -1.4430 h1         1 EQV       0.050700
     32 H6           4.9400    -0.2560     0.0360 hc         1 EQV       0.056200
     33 H7           4.7960     0.9130     1.3300 hc         1 EQV       0.056200
     34 H8           2.9260    -0.5210     1.9900 hc         1 EQV       0.078700
     35 H10          1.3710     1.2400     1.7230 hc         1 EQV       0.059700
     36 H13          0.0920     1.5990    -0.4360 h2         1 EQV       0.064700
     37 H15          1.5870    -1.9860    -1.8450 h4         1 EQV       0.227000
     38 H17         -1.5050    -0.5440    -1.0710 h2         1 EQV       0.050700
     39 H18         -2.5960    -1.0660     1.7520 h1         1 EQV       0.061700
     40 H19         -3.6900    -1.7680    -1.0190 h1         1 EQV       0.049700
     41 H20         -4.7110     0.1750     1.1240 h1         1 EQV       0.052700
     42 H21         -3.4700     0.7430    -1.6360 h1         1 EQV       0.056700
     43 H22         -5.1870     2.4280    -1.0140 h1         1 EQV       0.030700
     44 H23         -4.4420     2.6340     0.5760 h1         1 EQV       0.030700
     45 H24         -3.8040     4.3090    -0.8560 ho         1 EQV       0.494000
     46 H25         -6.1940    -1.0690    -0.3220 ho         1 EQV       0.519000
     47 H26         -4.0090    -3.2080     0.9100 ho         1 EQV       0.468000
     48 H27         -0.8270    -2.4800     0.8990 ho         1 EQV       0.554000
     49 H28          5.5480     1.8970    -1.3310 ho         1 EQV       0.439000
@<TRIPOS>BOND
     1     1     2 1   
     2     1    27 1   
     3     1    28 1   
     4     1    29 1   
     5     2     3 1   
     6     2     6 1   
     7     2    30 1   
     8     3     4 1   
     9     3    26 1   
    10     3    31 1   
    11     4     5 1   
    12     4    32 1   
    13     4    33 1   
    14     5     6 1   
    15     5    10 1   
    16     5    34 1   
    17     6     7 1   
    18     6    35 1   
    19     7     8 1   
    20     7    14 1   
    21     7    36 1   
    22     8     9 1   
    23     9    10 2   
    24     9    37 1   
    25    10    11 1   
    26    11    12 1   
    27    11    13 1   
    28    14    15 1   
    29    15    16 1   
    30    15    20 1   
    31    15    38 1   
    32    16    17 1   
    33    16    25 1   
    34    16    39 1   
    35    17    18 1   
    36    17    24 1   
    37    17    40 1   
    38    18    19 1   
    39    18    23 1   
    40    18    41 1   
    41    19    20 1   
    42    19    21 1   
    43    19    42 1   
    44    21    22 1   
    45    21    43 1   
    46    21    44 1   
    47    22    45 1   
    48    23    46 1   
    49    24    47 1   
    50    25    48 1   
    51    26    49 1   
@<TRIPOS>SUBSTRUCTURE
     1 EQV         1 TEMP              0 ****  ****    0 ROOT
