@<TRIPOS>MOLECULE
EQW
   26    27     1     0     0
SMALL
No Charge or Current Charge


@<TRIPOS>ATOM
      1 C2          -3.1220     0.0680    -0.0350 ca         1 EQW      -0.076000
      2 C3          -2.1300     0.9480     0.4330 ca         1 EQW       0.169400
      3 N4          -0.8280     0.5990     0.4370 nb         1 EQW      -0.243000
      4 C5          -0.5320    -0.6310    -0.0320 ca         1 EQW       0.386900
      5 C7           1.9610    -0.1920     0.2920 c6         1 EQW       0.246500
      6 C8           3.1660    -1.1020     0.6220 c6         1 EQW      -0.132400
      7 C11          3.6110     1.5120    -0.6050 c6         1 EQW       0.157600
      8 C12          2.3040     0.7410    -0.8950 c6         1 EQW      -0.132400
      9 C14         -2.7040    -1.1920    -0.4990 ca         1 EQW       0.169400
     10 Cl1         -4.8220     0.5260    -0.0380 cl         1 EQW      -0.175000
     11 N6           0.7980    -1.0300    -0.0410 nu         1 EQW      -0.912100
     12 C9           4.4330    -0.2450     0.8460 c6         1 EQW       0.157600
     13 O10          4.6750     0.5800    -0.3140 os         1 EQW      -0.449000
     14 N13         -1.4020    -1.5450    -0.4970 nb         1 EQW      -0.243000
     15 H15         -2.3780     1.9390     0.8090 h4         1 EQW       0.033600
     16 H17          1.7510     0.4230     1.1820 h1         1 EQW       0.079700
     17 H18          2.9570    -1.6970     1.5210 hc         1 EQW       0.057950
     18 H19          3.3490    -1.8100    -0.1970 hc         1 EQW       0.057950
     19 H23          3.8940     2.1170    -1.4780 h1         1 EQW       0.048450
     20 H22          3.4760     2.1900     0.2510 h1         1 EQW       0.048450
     21 H24          2.4230     0.1570    -1.8170 hc         1 EQW       0.057950
     22 H25          1.4870     1.4530    -1.0720 hc         1 EQW       0.057950
     23 H26         -3.4150    -1.9250    -0.8750 h4         1 EQW       0.033600
     24 H16          0.9650    -1.9670    -0.4080 hn         1 EQW       0.504000
     25 H20          4.3120     0.3970     1.7320 h1         1 EQW       0.048450
     26 H21          5.3040    -0.8960     1.0110 h1         1 EQW       0.048450
@<TRIPOS>BOND
     1     1     2 ar  
     2     1     9 ar  
     3     1    10 1   
     4     2     3 ar  
     5     2    15 1   
     6     3     4 ar  
     7     4    11 1   
     8     4    14 ar  
     9     5     6 1   
    10     5     8 1   
    11     5    11 1   
    12     5    16 1   
    13     6    12 1   
    14     6    17 1   
    15     6    18 1   
    16     7     8 1   
    17     7    13 1   
    18     7    19 1   
    19     7    20 1   
    20     8    21 1   
    21     8    22 1   
    22     9    14 ar  
    23     9    23 1   
    24    11    24 1   
    25    12    13 1   
    26    12    25 1   
    27    12    26 1   
@<TRIPOS>SUBSTRUCTURE
     1 EQW         1 TEMP              0 ****  ****    0 ROOT
