@<TRIPOS>MOLECULE
EQW
   26    27     1     0     0
SMALL
bcc


@<TRIPOS>ATOM
      1 C2          -3.0470     0.0740     0.0100 ca         1 EQW      -0.298200
      2 C3          -2.0390     0.9150     0.4510 ca         1 EQW       0.497700
      3 N4          -0.7680     0.5610     0.4170 nb         1 EQW      -0.769000
      4 C5          -0.4870    -0.6570    -0.0570 ca         1 EQW       0.912900
      5 C7           1.9270    -0.2110     0.2410 c6         1 EQW       0.246500
      6 C8           3.1240    -1.0750     0.6190 c6         1 EQW      -0.132400
      7 C11          3.5860     1.4730    -0.5870 c6         1 EQW       0.134400
      8 C12          2.3100     0.7140    -0.9150 c6         1 EQW      -0.132400
      9 C14         -2.6580    -1.1680    -0.4720 ca         1 EQW       0.497700
     10 CL1         -4.7030     0.5490     0.0520 cl         1 EQW      -0.083400
     11 N6           0.7960    -1.0560    -0.0740 nu         1 EQW      -0.856900
     12 C9           4.3480    -0.2030     0.8560 c6         1 EQW       0.134400
     13 O10          4.6490     0.6030    -0.2610 os         1 EQW      -0.402600
     14 N13         -1.3950    -1.5370    -0.5090 nb         1 EQW      -0.769000
     15 H15         -2.2690     1.9020     0.8370 h4         1 EQW       0.033600
     16 H17          1.6530     0.4010     1.1040 h1         1 EQW       0.079700
     17 H18          2.9110    -1.6510     1.5220 hc         1 EQW       0.057950
     18 H19          3.3320    -1.7910    -0.1840 hc         1 EQW       0.057950
     19 H23          3.9100     2.0660    -1.4440 h1         1 EQW       0.048450
     20 H22          3.3980     2.1720     0.2420 h1         1 EQW       0.048450
     21 H24          2.4520     0.1190    -1.8220 hc         1 EQW       0.057950
     22 H25          1.5070     1.4280    -1.1130 hc         1 EQW       0.057950
     23 H26         -3.3940    -1.8770    -0.8370 h4         1 EQW       0.033600
     24 H16          0.9790    -1.9330    -0.5370 hn         1 EQW       0.448800
     25 H20          4.1850     0.4210     1.7460 h1         1 EQW       0.048450
     26 H21          5.2250    -0.8230     1.0480 h1         1 EQW       0.048450
@<TRIPOS>BOND
     1     1     2 ar  
     2     1     9 ar  
     3     1    10 1   
     4     2     3 ar  
     5     2    15 1   
     6     3     4 ar  
     7     4    11 1   
     8     4    14 ar  
     9     5     6 1   
    10     5     8 1   
    11     5    11 1   
    12     5    16 1   
    13     6    12 1   
    14     6    17 1   
    15     6    18 1   
    16     7     8 1   
    17     7    13 1   
    18     7    19 1   
    19     7    20 1   
    20     8    21 1   
    21     8    22 1   
    22     9    14 ar  
    23     9    23 1   
    24    11    24 1   
    25    12    13 1   
    26    12    25 1   
    27    12    26 1   
@<TRIPOS>SUBSTRUCTURE
     1 EQW         1 TEMP              0 ****  ****    0 ROOT
