@<TRIPOS>MOLECULE
EQX
   36    38     1     0     0
SMALL
bcc


@<TRIPOS>ATOM
      1 C4          33.1270   -21.4600     6.5360 ca         1 EQX      -0.181300
      2 C14         37.0180   -22.5930     1.4420 c          1 EQX       0.932600
      3 C5          34.2190   -22.2420     6.1050 ca         1 EQX       0.469600
      4 C6          34.0610   -23.6360     6.0620 ca         1 EQX      -0.163300
      5 C11         38.1480   -20.8520     3.7470 c          1 EQX       0.716100
      6 C7          33.3470   -20.0520     6.5540 cc         1 EQX       0.057700
      7 C8          35.5770   -20.4280     5.7480 cc         1 EQX       0.811400
      8 C9          33.4040   -17.9570     6.6710 cd         1 EQX       0.526300
      9 C10         32.9680   -16.5620     6.9200 c3         1 EQX      -0.094400
     10 C12         37.2510   -20.3400     2.6500 c3         1 EQX      -0.107400
     11 C13         37.4280   -21.1090     1.3570 c3         1 EQX      -0.208400
     12 N1          34.5610   -19.5970     6.1550 na         1 EQX      -0.022800
     13 N2          35.4220   -21.7030     5.7280 nd         1 EQX      -0.710000
     14 C3          31.9190   -22.0560     6.9130 ca         1 EQX      -0.072000
     15 N3          32.5980   -19.0270     6.8860 nd         1 EQX      -0.418300
     16 C1          32.8680   -24.2120     6.4360 ca         1 EQX      -0.105000
     17 C2          31.7900   -23.4250     6.8640 ca         1 EQX      -0.162000
     18 N4          34.6050   -18.2560     6.2270 nc         1 EQX      -0.600100
     19 N5          36.7130   -19.8050     5.3600 nu         1 EQX      -0.640900
     20 N6          37.8130   -20.5230     5.0300 ns         1 EQX      -0.421300
     21 O1          37.2520   -23.2800     0.4270 o          1 EQX      -0.841800
     22 O2          36.4760   -22.9770     2.4980 o          1 EQX      -0.841800
     23 O3          39.1700   -21.4800     3.5470 o          1 EQX      -0.572100
     24 H1          34.8930   -24.2430     5.7290 ha         1 EQX       0.174000
     25 H2          33.7620   -15.8580     6.6850 hc         1 EQX       0.051700
     26 H3          32.0960   -16.3200     6.3120 hc         1 EQX       0.051700
     27 H4          32.6840   -16.4320     7.9640 hc         1 EQX       0.051700
     28 H5          37.4940   -19.2810     2.5040 hc         1 EQX       0.038200
     29 H6          36.2080   -20.3650     2.9620 hc         1 EQX       0.038200
     30 H7          38.4580   -21.0380     1.0000 hc         1 EQX       0.028200
     31 H8          36.8200   -20.6300     0.5830 hc         1 EQX       0.028200
     32 H9          31.0960   -21.4340     7.2400 ha         1 EQX       0.141000
     33 H10         32.7610   -25.2880     6.3970 ha         1 EQX       0.130000
     34 H11         30.8600   -23.8940     7.1550 ha         1 EQX       0.125000
     35 H12         36.8100   -18.8100     5.5000 hn         1 EQX       0.479800
     36 H13         38.3990   -20.8560     5.7850 hn         1 EQX       0.313500
@<TRIPOS>BOND
     1     1     3 ar  
     2     1     6 1   
     3     1    14 ar  
     4     2    11 1   
     5     2    21 1   
     6     2    22 1   
     7     3     4 ar  
     8     3    13 1   
     9     4    16 ar  
    10     4    24 1   
    11     5    10 1   
    12     5    20 1   
    13     5    23 2   
    14     6    12 1   
    15     6    15 2   
    16     7    12 1   
    17     7    13 2   
    18     7    19 1   
    19     8     9 1   
    20     8    15 1   
    21     8    18 2   
    22     9    25 1   
    23     9    26 1   
    24     9    27 1   
    25    10    11 1   
    26    10    28 1   
    27    10    29 1   
    28    11    30 1   
    29    11    31 1   
    30    12    18 1   
    31    14    17 ar  
    32    14    32 1   
    33    16    17 ar  
    34    16    33 1   
    35    17    34 1   
    36    19    20 1   
    37    19    35 1   
    38    20    36 1   
@<TRIPOS>SUBSTRUCTURE
     1 EQX         1 TEMP              0 ****  ****    0 ROOT
