@<TRIPOS>MOLECULE
EQX
   36    38     1     0     0
SMALL
No Charge or Current Charge


@<TRIPOS>ATOM
      1 C4          33.3430   -21.6820     6.3410 ca         1 EQX      -0.116000
      2 C14         35.6610   -21.6870     2.4050 c          1 EQX       0.722000
      3 C5          34.4880   -22.4900     6.2030 ca         1 EQX       0.339000
      4 C6          34.3310   -23.8870     6.2650 ca         1 EQX      -0.080000
      5 C11         38.4020   -20.7530     3.6360 c          1 EQX       0.649100
      6 C7          33.5570   -20.2670     6.2810 cc         1 EQX       0.007000
      7 C8          35.9010   -20.6410     5.9340 cc         1 EQX       0.811400
      8 C9          33.5330   -18.1440     6.2510 cd         1 EQX       0.526300
      9 C10         33.0080   -16.7390     6.3040 c3         1 EQX      -0.094400
     10 C12         37.4430   -19.8980     2.7670 c3         1 EQX      -0.107400
     11 C13         36.6410   -20.7230     1.7200 c3         1 EQX      -0.208400
     12 N1          34.7920   -19.7660     6.0910 na         1 EQX       0.027900
     13 N2          35.7930   -21.9800     6.0190 nd         1 EQX      -0.710000
     14 C3          32.0690   -22.2500     6.5330 ca         1 EQX      -0.054000
     15 N3          32.7160   -19.2620     6.3920 nd         1 EQX      -0.418300
     16 C1          33.0630   -24.4660     6.4560 ca         1 EQX      -0.087000
     17 C2          31.9310   -23.6460     6.5900 ca         1 EQX      -0.144000
     18 N4          34.8280   -18.3990     6.0630 nc         1 EQX      -0.600100
     19 N5          37.1580   -20.0940     5.7660 nu         1 EQX      -0.696100
     20 N6          38.2200   -20.7740     5.0240 ns         1 EQX      -0.354300
     21 O1          36.0390   -22.8270     2.6250 o          1 EQX      -0.736500
     22 O2          34.5600   -21.2610     2.7140 o          1 EQX      -0.736500
     23 O3          39.3500   -21.3500     3.1430 o          1 EQX      -0.572100
     24 H1          35.2050   -24.5250     6.1630 ha         1 EQX       0.156000
     25 H2          33.2320   -16.2050     5.3740 hc         1 EQX       0.051700
     26 H3          31.9220   -16.7260     6.4470 hc         1 EQX       0.051700
     27 H4          33.4640   -16.1860     7.1330 hc         1 EQX       0.051700
     28 H5          38.0600   -19.1810     2.2130 hc         1 EQX       0.038200
     29 H6          36.7360   -19.3270     3.3770 hc         1 EQX       0.038200
     30 H7          37.3790   -21.2750     1.1250 hc         1 EQX       0.028200
     31 H8          36.0850   -19.9760     1.1400 hc         1 EQX       0.028200
     32 H9          31.1920   -21.6140     6.6380 ha         1 EQX       0.123000
     33 H10         32.9610   -25.5490     6.5000 ha         1 EQX       0.112000
     34 H11         30.9500   -24.0910     6.7380 ha         1 EQX       0.107000
     35 H12         37.1620   -19.0680     5.7510 hn         1 EQX       0.535000
     36 H13         38.9000   -21.3130     5.5570 hn         1 EQX       0.313500
@<TRIPOS>BOND
     1     1     3 ar  
     2     1     6 1   
     3     1    14 ar  
     4     2    11 1   
     5     2    21 1   
     6     2    22 1   
     7     3     4 ar  
     8     3    13 1   
     9     4    16 ar  
    10     4    24 1   
    11     5    10 1   
    12     5    20 1   
    13     5    23 2   
    14     6    12 1   
    15     6    15 2   
    16     7    12 1   
    17     7    13 2   
    18     7    19 1   
    19     8     9 1   
    20     8    15 1   
    21     8    18 2   
    22     9    25 1   
    23     9    26 1   
    24     9    27 1   
    25    10    11 1   
    26    10    28 1   
    27    10    29 1   
    28    11    30 1   
    29    11    31 1   
    30    12    18 1   
    31    14    17 ar  
    32    14    32 1   
    33    16    17 ar  
    34    16    33 1   
    35    17    34 1   
    36    19    20 1   
    37    19    35 1   
    38    20    36 1   
@<TRIPOS>SUBSTRUCTURE
     1 EQX         1 TEMP              0 ****  ****    0 ROOT
