@<TRIPOS>MOLECULE
EQY
   38    41     1     0     0
SMALL
No Charge or Current Charge


@<TRIPOS>ATOM
      1 C10          0.9610     4.0360     0.6710 cc         1 EQY       0.545200
      2 C13          0.7150     0.6420     0.0900 cc         1 EQY       0.096000
      3 C23         -3.9520     0.0900     1.1400 ca         1 EQY      -0.021000
      4 C27         -3.5840    -0.2100    -1.2350 ca         1 EQY       0.359900
      5 C25         -5.6490    -0.7840    -0.3510 ca         1 EQY       0.351900
      6 C24         -5.2490    -0.4080     0.9420 ca         1 EQY      -0.168000
      7 C01         -1.8260    -3.5780    -0.2960 c3         1 EQY       0.148900
      8 C03         -0.5070    -1.5490    -0.2310 c          1 EQY       0.616700
      9 C05         -0.5050    -0.0640     0.0010 cd         1 EQY      -0.228600
     10 C06         -1.7370     0.7030     0.1480 cd         1 EQY       0.501500
     11 C08         -0.5940     2.6750     0.4800 cd         1 EQY       0.417500
     12 C14          2.0240    -0.0060    -0.0000 ca         1 EQY      -0.012000
     13 C15          2.7630     0.0510    -1.1980 ca         1 EQY      -0.127500
     14 C16          4.0230    -0.5620    -1.2770 ca         1 EQY       0.203500
     15 C18          4.5610    -1.2290    -0.1670 ca         1 EQY      -0.178000
     16 C19          3.8310    -1.2760     1.0290 ca         1 EQY       0.203500
     17 C21          2.5710    -0.6660     1.1180 ca         1 EQY      -0.127500
     18 C22         -3.0990     0.1840     0.0240 ca         1 EQY      -0.215500
     19 F17          4.7240    -0.5090    -2.4300 f          1 EQY      -0.164500
     20 F20          4.3470    -1.9130     2.1030 f          1 EQY      -0.164500
     21 N07         -1.7180     2.0030     0.3880 nc         1 EQY      -0.633000
     22 N09         -0.3950     3.9470     0.7010 nc         1 EQY      -0.365300
     23 N11          1.6420     2.9190     0.4490 nd         1 EQY      -0.580100
     24 N12          0.6130     2.0150     0.3190 na         1 EQY       0.079900
     25 N26         -4.8360    -0.6870    -1.4290 nb         1 EQY      -0.665000
     26 O02         -1.7260    -2.1550    -0.0920 os         1 EQY      -0.427100
     27 O04          0.4860    -2.2040    -0.5160 o          1 EQY      -0.460000
     28 H1           1.4230     5.0030     0.8300 h5         1 EQY       0.079800
     29 H2          -3.6170     0.3930     2.1310 ha         1 EQY       0.137000
     30 H3          -2.9520    -0.1420    -2.1200 h4         1 EQY       0.027100
     31 H4          -6.6510    -1.1720    -0.5310 h4         1 EQY       0.024100
     32 H5          -5.9410    -0.5020     1.7740 ha         1 EQY       0.130000
     33 H6          -2.8610    -3.9120    -0.1510 h1         1 EQY       0.055700
     34 H7          -1.5220    -3.8500    -1.3150 h1         1 EQY       0.055700
     35 H8          -1.1910    -4.1230     0.4150 h1         1 EQY       0.055700
     36 H9           2.3600     0.5660    -2.0650 ha         1 EQY       0.147000
     37 H10          5.5370    -1.7010    -0.2320 ha         1 EQY       0.155000
     38 H11          2.0180    -0.7090     2.0530 ha         1 EQY       0.147000
@<TRIPOS>BOND
     1     1    22 1   
     2     1    23 2   
     3     1    28 1   
     4     2     9 2   
     5     2    12 1   
     6     2    24 1   
     7     3     6 ar  
     8     3    18 ar  
     9     3    29 1   
    10     4    18 ar  
    11     4    25 ar  
    12     4    30 1   
    13     5     6 ar  
    14     5    25 ar  
    15     5    31 1   
    16     6    32 1   
    17     7    26 1   
    18     7    33 1   
    19     7    34 1   
    20     7    35 1   
    21     8     9 1   
    22     8    26 1   
    23     8    27 2   
    24     9    10 1   
    25    10    18 1   
    26    10    21 2   
    27    11    21 1   
    28    11    22 2   
    29    11    24 1   
    30    12    13 ar  
    31    12    17 ar  
    32    13    14 ar  
    33    13    36 1   
    34    14    15 ar  
    35    14    19 1   
    36    15    16 ar  
    37    15    37 1   
    38    16    17 ar  
    39    16    20 1   
    40    17    38 1   
    41    23    24 1   
@<TRIPOS>SUBSTRUCTURE
     1 EQY         1 TEMP              0 ****  ****    0 ROOT
