@<TRIPOS>MOLECULE
EQY
   38    41     1     0     0
SMALL
abcg2


@<TRIPOS>ATOM
      1 C10          1.0390     3.9100     0.8950 cc         1 EQY       0.545200
      2 C13          0.6390     0.6510     0.0620 cc         1 EQY       0.096000
      3 C23         -4.1220     0.3910     0.8520 ca         1 EQY      -0.021000
      4 C27         -3.3940    -0.5890    -1.1970 ca         1 EQY       0.359900
      5 C25         -5.5370    -0.9410    -0.5260 ca         1 EQY       0.351900
      6 C24         -5.3590    -0.1820     0.6220 ca         1 EQY      -0.168000
      7 C01         -1.4890    -3.5050     0.2960 c3         1 EQY       0.148900
      8 C03         -0.5930    -1.4370    -0.3750 c          1 EQY       0.616700
      9 C05         -0.5740     0.0220    -0.0570 cd         1 EQY      -0.228600
     10 C06         -1.7720     0.7760     0.1290 cd         1 EQY       0.501500
     11 C08         -0.5800     2.6380     0.5900 cd         1 EQY       0.417500
     12 C14          1.9520    -0.0020    -0.0740 ca         1 EQY      -0.012000
     13 C15          2.8100     0.3810    -1.0970 ca         1 EQY      -0.127500
     14 C16          4.0230    -0.2690    -1.2000 ca         1 EQY       0.203500
     15 C18          4.4160    -1.2650    -0.3250 ca         1 EQY      -0.178000
     16 C19          3.5350    -1.6030     0.6820 ca         1 EQY       0.203500
     17 C21          2.3030    -0.9950     0.8320 ca         1 EQY      -0.127500
     18 C22         -3.1020     0.1700    -0.0670 ca         1 EQY      -0.215500
     19 F17          4.8570     0.0770    -2.1830 f          1 EQY      -0.164500
     20 F20          3.8910    -2.5540     1.5490 f          1 EQY      -0.164500
     21 N07         -1.7610     2.0440     0.4570 nc         1 EQY      -0.633000
     22 N09         -0.3030     3.8820     0.9220 nc         1 EQY      -0.365300
     23 N11          1.6400     2.7830     0.5740 nd         1 EQY      -0.580100
     24 N12          0.6020     1.9640     0.3720 na         1 EQY       0.079900
     25 N26         -4.5790    -1.1320    -1.4260 nb         1 EQY      -0.665000
     26 O02         -1.3030    -2.1020     0.5130 os         1 EQY      -0.427100
     27 O04         -0.0230    -1.9230    -1.3150 o          1 EQY      -0.460000
     28 H1           1.6110     4.7960     1.1230 h5         1 EQY       0.079800
     29 H2          -3.9430     0.9880     1.7370 ha         1 EQY       0.137000
     30 H3          -2.6440    -0.7380    -1.9690 h4         1 EQY       0.027100
     31 H4          -6.4930    -1.4090    -0.7300 h4         1 EQY       0.024100
     32 H5          -6.1750    -0.0480     1.3180 ha         1 EQY       0.130000
     33 H6          -2.1650    -3.8370     1.0770 h1         1 EQY       0.055700
     34 H7          -1.9340    -3.6970    -0.6800 h1         1 EQY       0.055700
     35 H8          -0.5450    -4.0420     0.3760 h1         1 EQY       0.055700
     36 H9           2.5410     1.1530    -1.8060 ha         1 EQY       0.147000
     37 H10          5.3760    -1.7550    -0.4240 ha         1 EQY       0.155000
     38 H11          1.6460    -1.2830     1.6420 ha         1 EQY       0.147000
@<TRIPOS>BOND
     1     1    22 1   
     2     1    23 2   
     3     1    28 1   
     4     2     9 2   
     5     2    12 1   
     6     2    24 1   
     7     3     6 ar  
     8     3    18 ar  
     9     3    29 1   
    10     4    18 ar  
    11     4    25 ar  
    12     4    30 1   
    13     5     6 ar  
    14     5    25 ar  
    15     5    31 1   
    16     6    32 1   
    17     7    26 1   
    18     7    33 1   
    19     7    34 1   
    20     7    35 1   
    21     8     9 1   
    22     8    26 1   
    23     8    27 2   
    24     9    10 1   
    25    10    18 1   
    26    10    21 2   
    27    11    21 1   
    28    11    22 2   
    29    11    24 1   
    30    12    13 ar  
    31    12    17 ar  
    32    13    14 ar  
    33    13    36 1   
    34    14    15 ar  
    35    14    19 1   
    36    15    16 ar  
    37    15    37 1   
    38    16    17 ar  
    39    16    20 1   
    40    17    38 1   
    41    23    24 1   
@<TRIPOS>SUBSTRUCTURE
     1 EQY         1 TEMP              0 ****  ****    0 ROOT
