@<TRIPOS>MOLECULE
EQZ
   51    54     1     0     0
SMALL
No Charge or Current Charge


@<TRIPOS>ATOM
      1 C1           7.5000    -1.2400     2.4200 c3         1 EQZ       0.143900
      2 C3           7.0860    -1.4190     0.0430 c3         1 EQZ       0.134600
      3 C6           4.7250     0.5020    -1.3570 c5         1 EQZ       0.142300
      4 C7           3.2890     0.8410    -0.9800 ca         1 EQZ      -0.069300
      5 C8           2.6100     2.0510    -1.1730 ca         1 EQZ      -0.109000
      6 C10          0.5980     1.0620    -0.1240 cp         1 EQZ      -0.169500
      7 C11          1.3120    -0.1570     0.0420 ca         1 EQZ       0.006000
      8 C12          2.6430    -0.2290    -0.3890 ca         1 EQZ      -0.168600
      9 C13          3.5800    -1.3630    -0.3190 c          1 EQZ       0.589600
     10 C15         -0.8300     1.1690     0.3140 cp         1 EQZ       0.243500
     11 C19         -5.1390    -1.0450     0.1600 c6         1 EQZ       0.248500
     12 C21         -7.3960    -0.5110    -0.8650 c6         1 EQZ       0.157100
     13 C23         -7.0580    -2.6990     0.1190 c6         1 EQZ       0.157100
     14 C24         -5.5210    -2.5410     0.0840 c6         1 EQZ      -0.132400
     15 C26         -2.7240     2.2260     1.3880 ca         1 EQZ       0.164900
     16 C27         -1.3600     2.2680     1.0480 ca         1 EQZ      -0.065000
     17 O2           6.5680    -1.5720     1.3780 os         1 EQZ      -0.437000
     18 C4           5.9780    -1.7860    -0.9690 c3         1 EQZ       0.113000
     19 N5           4.7830    -0.9180    -0.8900 n          1 EQZ      -0.414800
     20 C9           1.2690     2.1550    -0.7480 ca         1 EQZ      -0.056000
     21 N16         -1.6270     0.1280    -0.0040 nb         1 EQZ      -0.251000
     22 C17         -2.9160     0.1900     0.3620 ca         1 EQZ       0.394900
     23 C20         -5.8750    -0.2470    -0.9430 c6         1 EQZ      -0.132400
     24 O22         -7.6510    -1.9300    -0.9500 os         1 EQZ      -0.449000
     25 N25         -3.5090     1.1880     1.0430 nb         1 EQZ      -0.240000
     26 Cl1         -0.3860     3.6340     1.5990 cl         1 EQZ      -0.175000
     27 H31          7.0360    -1.3820     3.4050 h1         1 EQZ       0.028700
     28 H30          8.3900    -1.8810     2.3660 h1         1 EQZ       0.028700
     29 H29          7.8190    -0.1930     2.3400 h1         1 EQZ       0.028700
     30 H32          7.4090    -0.3840    -0.1310 h1         1 EQZ       0.021700
     31 H33          7.9490    -2.0790    -0.1130 h1         1 EQZ       0.021700
     32 H36          4.8920     0.5850    -2.4390 h1         1 EQZ       0.059200
     33 H37          5.4450     1.1390    -0.8260 h1         1 EQZ       0.059200
     34 H38          3.1070     2.8950    -1.6470 ha         1 EQZ       0.122000
     35 H40          0.8410    -1.0230     0.5040 ha         1 EQZ       0.148000
     36 H41         -3.1830    -1.6310    -0.5180 hn         1 EQZ       0.507000
     37 H42         -5.4550    -0.6680     1.1470 h1         1 EQZ       0.078700
     38 H45         -7.8050    -0.1220     0.0790 h1         1 EQZ       0.048200
     39 H46         -7.9090    -0.0040    -1.6950 h1         1 EQZ       0.048200
     40 H48         -7.3310    -3.7560    -0.0070 h1         1 EQZ       0.048200
     41 H47         -7.4590    -2.3530     1.0830 h1         1 EQZ       0.048200
     42 H49         -5.1320    -2.9910    -0.8390 hc         1 EQZ       0.058950
     43 H50         -5.0720    -3.0900     0.9230 hc         1 EQZ       0.058950
     44 H51         -3.1930     3.0300     1.9540 h4         1 EQZ       0.034100
     45 H34          6.3930    -1.7080    -1.9820 h1         1 EQZ       0.065200
     46 H35          5.6900    -2.8340    -0.8180 h1         1 EQZ       0.065200
     47 H39          0.7390     3.0890    -0.9200 ha         1 EQZ       0.124000
     48 H43         -5.6810     0.8280    -0.8340 hc         1 EQZ       0.058950
     49 H44         -5.5050    -0.5380    -1.9350 hc         1 EQZ       0.058950
     50 O14          3.3500    -2.4760     0.1350 o          1 EQZ      -0.532000
     51 N18         -3.6830    -0.9080    -0.0010 nu         1 EQZ      -0.913100
@<TRIPOS>BOND
     1     1    17 1   
     2     1    27 1   
     3     1    28 1   
     4     1    29 1   
     5     2    17 1   
     6     2    18 1   
     7     2    30 1   
     8     2    31 1   
     9     3     4 1   
    10     3    19 1   
    11     3    32 1   
    12     3    33 1   
    13     4     5 ar  
    14     4     8 ar  
    15     5    20 ar  
    16     5    34 1   
    17     6     7 ar  
    18     6    10 1   
    19     6    20 ar  
    20     7     8 ar  
    21     7    35 1   
    22     8     9 1   
    23     9    19 1   
    24     9    50 2   
    25    10    16 ar  
    26    10    21 ar  
    27    11    14 1   
    28    11    23 1   
    29    11    37 1   
    30    11    51 1   
    31    12    23 1   
    32    12    24 1   
    33    12    38 1   
    34    12    39 1   
    35    13    14 1   
    36    13    24 1   
    37    13    40 1   
    38    13    41 1   
    39    14    42 1   
    40    14    43 1   
    41    15    16 ar  
    42    15    25 ar  
    43    15    44 1   
    44    16    26 1   
    45    18    19 1   
    46    18    45 1   
    47    18    46 1   
    48    20    47 1   
    49    21    22 ar  
    50    22    25 ar  
    51    22    51 1   
    52    23    48 1   
    53    23    49 1   
    54    36    51 1   
@<TRIPOS>SUBSTRUCTURE
     1 EQZ         1 TEMP              0 ****  ****    0 ROOT
