@<TRIPOS>MOLECULE
EQZ
   51    54     1     0     0
SMALL
abcg2


@<TRIPOS>ATOM
      1 C1           7.3320    -1.1330     2.3530 c3         1 EQZ       0.143900
      2 C3           6.9600    -1.3670     0.0590 c3         1 EQZ       0.134600
      3 C6           4.6550     0.4110    -1.3070 c5         1 EQZ       0.142300
      4 C7           3.2570     0.8130    -0.9610 ca         1 EQZ      -0.069300
      5 C8           2.5890     2.0090    -1.1550 ca         1 EQZ      -0.109000
      6 C10          0.6270     1.0220    -0.1120 cp         1 EQZ      -0.169500
      7 C11          1.3030    -0.1840     0.0580 ca         1 EQZ       0.006000
      8 C12          2.6170    -0.2580    -0.3620 ca         1 EQZ      -0.168600
      9 C13          3.5570    -1.3970    -0.2880 c          1 EQZ       0.589600
     10 C15         -0.7880     1.1110     0.3070 cp         1 EQZ       0.243500
     11 C19         -5.0330    -1.0270     0.0940 c6         1 EQZ       0.248500
     12 C21         -7.3090    -0.4900    -0.7910 c6         1 EQZ       0.157100
     13 C23         -6.9650    -2.6050     0.1450 c6         1 EQZ       0.157100
     14 C24         -5.4510    -2.4920     0.0410 c6         1 EQZ      -0.132400
     15 C26         -2.6610     2.1020     1.3750 ca         1 EQZ       0.164900
     16 C27         -1.3110     2.1580     1.0690 ca         1 EQZ      -0.065000
     17 O2           6.4330    -1.5270     1.3470 os         1 EQZ      -0.437000
     18 C4           5.9060    -1.7560    -0.9610 c3         1 EQZ       0.113000
     19 N5           4.7060    -0.9670    -0.8620 n          1 EQZ      -0.414800
     20 C9           1.2750     2.1030    -0.7190 ca         1 EQZ      -0.056000
     21 N16         -1.5660     0.1070    -0.0620 nb         1 EQZ      -0.251000
     22 C17         -2.8570     0.1330     0.2910 ca         1 EQZ       0.394900
     23 C20         -5.8170    -0.2380    -0.9550 c6         1 EQZ      -0.132400
     24 O22         -7.6220    -1.8640    -0.8590 os         1 EQZ      -0.449000
     25 N25         -3.4420     1.1150     0.9870 nb         1 EQZ      -0.240000
     26 CL1         -0.3540     3.4570     1.6850 cl         1 EQZ      -0.175000
     27 H31          6.8350    -1.2560     3.3150 h1         1 EQZ       0.028700
     28 H30          8.2440    -1.7420     2.3540 h1         1 EQZ       0.028700
     29 H29          7.6300    -0.0830     2.2500 h1         1 EQZ       0.028700
     30 H32          7.2870    -0.3300    -0.1050 h1         1 EQZ       0.021700
     31 H33          7.8430    -2.0020    -0.0990 h1         1 EQZ       0.021700
     32 H36          4.8530     0.4860    -2.3800 h1         1 EQZ       0.059200
     33 H37          5.3940     1.0320    -0.7920 h1         1 EQZ       0.059200
     34 H38          3.0660     2.8530    -1.6350 ha         1 EQZ       0.122000
     35 H40          0.8130    -1.0340     0.5150 ha         1 EQZ       0.148000
     36 H41         -3.1450    -1.5930    -0.6780 hn         1 EQZ       0.507000
     37 H42         -5.2820    -0.6320     1.0830 h1         1 EQZ       0.078700
     38 H45         -7.6490    -0.0680     0.1660 h1         1 EQZ       0.048200
     39 H46         -7.8710     0.0060    -1.5840 h1         1 EQZ       0.048200
     40 H48         -7.2770    -3.6440     0.0340 h1         1 EQZ       0.048200
     41 H47         -7.2880    -2.2690     1.1410 h1         1 EQZ       0.048200
     42 H49         -5.1140    -2.9410    -0.8990 hc         1 EQZ       0.058950
     43 H50         -4.9890    -3.0520     0.8580 hc         1 EQZ       0.058950
     44 H51         -3.1190     2.8930     1.9600 h4         1 EQZ       0.034100
     45 H34          6.3300    -1.6450    -1.9620 h1         1 EQZ       0.065200
     46 H35          5.6360    -2.8050    -0.8390 h1         1 EQZ       0.065200
     47 H39          0.7390     3.0280    -0.8820 ha         1 EQZ       0.124000
     48 H43         -5.6170     0.8310    -0.8570 hc         1 EQZ       0.058950
     49 H44         -5.4950    -0.5450    -1.9550 hc         1 EQZ       0.058950
     50 O14          3.3390    -2.5040     0.1750 o          1 EQZ      -0.532000
     51 N18         -3.6010    -0.9210    -0.0810 nu         1 EQZ      -0.913100
@<TRIPOS>BOND
     1     1    17 1   
     2     1    27 1   
     3     1    28 1   
     4     1    29 1   
     5     2    17 1   
     6     2    18 1   
     7     2    30 1   
     8     2    31 1   
     9     3     4 1   
    10     3    19 1   
    11     3    32 1   
    12     3    33 1   
    13     4     5 ar  
    14     4     8 ar  
    15     5    20 ar  
    16     5    34 1   
    17     6     7 ar  
    18     6    10 1   
    19     6    20 ar  
    20     7     8 ar  
    21     7    35 1   
    22     8     9 1   
    23     9    19 1   
    24     9    50 2   
    25    10    16 ar  
    26    10    21 ar  
    27    11    14 1   
    28    11    23 1   
    29    11    37 1   
    30    11    51 1   
    31    12    23 1   
    32    12    24 1   
    33    12    38 1   
    34    12    39 1   
    35    13    14 1   
    36    13    24 1   
    37    13    40 1   
    38    13    41 1   
    39    14    42 1   
    40    14    43 1   
    41    15    16 ar  
    42    15    25 ar  
    43    15    44 1   
    44    16    26 1   
    45    18    19 1   
    46    18    45 1   
    47    18    46 1   
    48    20    47 1   
    49    21    22 ar  
    50    22    25 ar  
    51    22    51 1   
    52    23    48 1   
    53    23    49 1   
    54    36    51 1   
@<TRIPOS>SUBSTRUCTURE
     1 EQZ         1 TEMP              0 ****  ****    0 ROOT
