@<TRIPOS>MOLECULE
ER0
   83    82     1     0     0
SMALL
abcg2


@<TRIPOS>ATOM
      1 C1           2.7280    -7.4410     2.8190 c3         1 ER0      -0.087100
      2 C2           2.6330    -6.5450     4.0500 c3         1 ER0      -0.060700
      3 C3           1.8490    -7.2510     5.1530 c3         1 ER0      -0.087100
      4 C4           2.0280    -5.1890     3.6860 c3         1 ER0      -0.072400
      5 C5           2.0800    -4.1490     4.8000 c3         1 ER0      -0.075400
      6 C6           1.5430    -2.7900     4.3660 c3         1 ER0      -0.072400
      7 C7           1.5450    -1.7340     5.4740 c3         1 ER0      -0.056700
      8 C8           2.9610    -1.3480     5.8970 c3         1 ER0      -0.086100
      9 C9           0.7120    -0.5030     5.0970 c3         1 ER0      -0.070400
     10 C10          1.2140     0.2880     3.8930 c3         1 ER0      -0.076400
     11 C11          0.3640     1.5210     3.6050 c3         1 ER0      -0.073400
     12 C12          0.9260     2.4280     2.5080 c3         1 ER0      -0.057700
     13 C13          1.0650     1.6910     1.1780 c3         1 ER0      -0.087100
     14 C14          0.0850     3.6920     2.3150 c3         1 ER0      -0.073400
     15 C15          0.0170     4.6200     3.5240 c3         1 ER0      -0.073400
     16 C16         -0.5750     5.9790     3.1670 c3         1 ER0      -0.074400
     17 C17         -0.7450     6.9530     4.3360 c3         1 ER0      -0.055700
     18 C18          0.5920     7.3000     4.9830 c3         1 ER0      -0.088100
     19 C19         -1.4700     8.2080     3.8420 c3         1 ER0      -0.074400
     20 C20         -1.8250     9.2170     4.9290 c3         1 ER0      -0.069400
     21 C21         -2.6150    10.3980     4.3510 c3         1 ER0      -0.139400
     22 C22         -2.8600    11.4560     5.3890 c          1 ER0       0.588100
     23 O1          -2.2240    12.4750     5.4990 o          1 ER0      -0.488000
     24 O2          -3.8490    11.1140     6.2140 os         1 ER0      -0.459100
     25 C23         -4.1790    11.9940     7.3010 c3         1 ER0       0.131600
     26 C24         -5.1660    13.0570     6.8320 c3         1 ER0       0.163300
     27 O3          -6.3300    12.4590     6.3000 oh         1 ER0      -0.715000
     28 C25         -5.6250    14.0040     7.9400 c3         1 ER0       0.181300
     29 O4          -6.0960    13.2330     9.0210 oh         1 ER0      -0.637000
     30 C26         -4.5830    15.0290     8.3630 c3         1 ER0       0.126600
     31 O5          -3.4980    14.4140     9.0140 oh         1 ER0      -0.709000
     32 H1           3.1960    -8.3980     3.0600 hc         1 ER0       0.031700
     33 H2           1.7350    -7.6540     2.4140 hc         1 ER0       0.031700
     34 H3           3.3160    -6.9740     2.0270 hc         1 ER0       0.031700
     35 H4           3.6520    -6.3680     4.4170 hc         1 ER0       0.043700
     36 H5           2.3120    -8.2050     5.4120 hc         1 ER0       0.031700
     37 H6           1.7880    -6.6570     6.0650 hc         1 ER0       0.031700
     38 H7           0.8280    -7.4600     4.8240 hc         1 ER0       0.031700
     39 H8           0.9880    -5.3340     3.3660 hc         1 ER0       0.037200
     40 H9           2.5590    -4.7920     2.8130 hc         1 ER0       0.037200
     41 H10          3.1160    -4.0510     5.1410 hc         1 ER0       0.037700
     42 H11          1.5080    -4.4930     5.6680 hc         1 ER0       0.037700
     43 H12          0.5160    -2.9180     4.0040 hc         1 ER0       0.038200
     44 H13          2.1230    -2.4310     3.5070 hc         1 ER0       0.038200
     45 H14          1.0540    -2.1820     6.3470 hc         1 ER0       0.042700
     46 H15          2.9460    -0.5720     6.6640 hc         1 ER0       0.031367
     47 H16          3.5060    -2.1990     6.3080 hc         1 ER0       0.031367
     48 H17          3.5440    -0.9680     5.0550 hc         1 ER0       0.031367
     49 H18          0.6630     0.1640     5.9650 hc         1 ER0       0.036200
     50 H19         -0.3180    -0.8260     4.9070 hc         1 ER0       0.036200
     51 H20          1.2380    -0.3610     3.0140 hc         1 ER0       0.039200
     52 H21          2.2480     0.6090     4.0630 hc         1 ER0       0.039200
     53 H22          0.2640     2.0950     4.5320 hc         1 ER0       0.037200
     54 H23         -0.6520     1.2130     3.3280 hc         1 ER0       0.037200
     55 H24          1.9290     2.7470     2.8230 hc         1 ER0       0.043700
     56 H25          1.7570     0.8510     1.2430 hc         1 ER0       0.032033
     57 H26          0.1000     1.3010     0.8460 hc         1 ER0       0.032033
     58 H27          1.4390     2.3580     0.3990 hc         1 ER0       0.032033
     59 H28          0.5060     4.2530     1.4730 hc         1 ER0       0.037200
     60 H29         -0.9290     3.4090     2.0090 hc         1 ER0       0.037200
     61 H30         -0.5790     4.1660     4.3220 hc         1 ER0       0.039700
     62 H31          1.0250     4.7450     3.9310 hc         1 ER0       0.039700
     63 H32          0.0520     6.4500     2.4000 hc         1 ER0       0.036700
     64 H33         -1.5540     5.8220     2.7000 hc         1 ER0       0.036700
     65 H34         -1.3790     6.4680     5.0900 hc         1 ER0       0.046700
     66 H35          0.4690     7.9590     5.8430 hc         1 ER0       0.033367
     67 H36          1.1180     6.4130     5.3370 hc         1 ER0       0.033367
     68 H37          1.2450     7.8090     4.2680 hc         1 ER0       0.033367
     69 H38         -0.8480     8.6990     3.0850 hc         1 ER0       0.038700
     70 H39         -2.3920     7.9050     3.3320 hc         1 ER0       0.038700
     71 H40         -2.4110     8.7280     5.7110 hc         1 ER0       0.052700
     72 H41         -0.9160     9.5950     5.4040 hc         1 ER0       0.052700
     73 H42         -2.0540    10.8490     3.5310 hc         1 ER0       0.069200
     74 H43         -3.5660    10.0420     3.9490 hc         1 ER0       0.069200
     75 H44         -4.6340    11.3500     8.0520 h1         1 ER0       0.090700
     76 H45         -3.2810    12.4440     7.7180 h1         1 ER0       0.090700
     77 H46         -4.6740    13.6830     6.0740 h1         1 ER0       0.040700
     78 H47         -6.0850    11.9410     5.5270 ho         1 ER0       0.510000
     79 H48         -6.4370    14.5980     7.4940 h1         1 ER0       0.044700
     80 H49         -6.5280    13.8200     9.6490 ho         1 ER0       0.443000
     81 H50         -4.2710    15.5850     7.4690 h1         1 ER0       0.023200
     82 H51         -5.0790    15.7560     9.0230 h1         1 ER0       0.023200
     83 H52         -2.8490    15.0920     9.2170 ho         1 ER0       0.506000
@<TRIPOS>BOND
     1     1     2 1   
     2     1    32 1   
     3     1    33 1   
     4     1    34 1   
     5     2     3 1   
     6     2     4 1   
     7     2    35 1   
     8     3    36 1   
     9     3    37 1   
    10     3    38 1   
    11     4     5 1   
    12     4    39 1   
    13     4    40 1   
    14     5     6 1   
    15     5    41 1   
    16     5    42 1   
    17     6     7 1   
    18     6    43 1   
    19     6    44 1   
    20     7     8 1   
    21     7     9 1   
    22     7    45 1   
    23     8    46 1   
    24     8    47 1   
    25     8    48 1   
    26     9    10 1   
    27     9    49 1   
    28     9    50 1   
    29    10    11 1   
    30    10    51 1   
    31    10    52 1   
    32    11    12 1   
    33    11    53 1   
    34    11    54 1   
    35    12    13 1   
    36    12    14 1   
    37    12    55 1   
    38    13    56 1   
    39    13    57 1   
    40    13    58 1   
    41    14    15 1   
    42    14    59 1   
    43    14    60 1   
    44    15    16 1   
    45    15    61 1   
    46    15    62 1   
    47    16    17 1   
    48    16    63 1   
    49    16    64 1   
    50    17    18 1   
    51    17    19 1   
    52    17    65 1   
    53    18    66 1   
    54    18    67 1   
    55    18    68 1   
    56    19    20 1   
    57    19    69 1   
    58    19    70 1   
    59    20    21 1   
    60    20    71 1   
    61    20    72 1   
    62    21    22 1   
    63    21    73 1   
    64    21    74 1   
    65    22    23 2   
    66    22    24 1   
    67    24    25 1   
    68    25    26 1   
    69    25    75 1   
    70    25    76 1   
    71    26    27 1   
    72    26    28 1   
    73    26    77 1   
    74    27    78 1   
    75    28    29 1   
    76    28    30 1   
    77    28    79 1   
    78    29    80 1   
    79    30    31 1   
    80    30    81 1   
    81    30    82 1   
    82    31    83 1   
@<TRIPOS>SUBSTRUCTURE
     1 ER0         1 TEMP              0 ****  ****    0 ROOT
