@<TRIPOS>MOLECULE
ER0
   83    82     1     0     0
SMALL
No Charge or Current Charge


@<TRIPOS>ATOM
      1 C1           2.1350    -7.6590     3.1260 c3         1 ER0      -0.087100
      2 C2           2.3390    -6.6500     4.2780 c3         1 ER0      -0.060700
      3 C3           1.7890    -7.2190     5.6080 c3         1 ER0      -0.087100
      4 C4           1.7360    -5.2650     3.9150 c3         1 ER0      -0.072400
      5 C5           2.0360    -4.1380     4.9330 c3         1 ER0      -0.075400
      6 C6           1.5110    -2.7580     4.4700 c3         1 ER0      -0.072400
      7 C7           1.7020    -1.6110     5.5040 c3         1 ER0      -0.056700
      8 C8           3.1930    -1.3150     5.8050 c3         1 ER0      -0.086100
      9 C9           0.9200    -0.3240     5.1120 c3         1 ER0      -0.070400
     10 C10          1.3760     0.3690     3.8020 c3         1 ER0      -0.076400
     11 C11          0.5560     1.6440     3.4850 c3         1 ER0      -0.073400
     12 C12          1.0540     2.4580     2.2530 c3         1 ER0      -0.057700
     13 C13          1.0590     1.6130     0.9540 c3         1 ER0      -0.087100
     14 C14          0.2400     3.7660     2.0330 c3         1 ER0      -0.073400
     15 C15          0.3270     4.8000     3.1820 c3         1 ER0      -0.073400
     16 C16         -0.3750     6.1370     2.8370 c3         1 ER0      -0.074400
     17 C17         -0.4460     7.1670     4.0010 c3         1 ER0      -0.055700
     18 C18          0.9620     7.6170     4.4740 c3         1 ER0      -0.088100
     19 C19         -1.3450     8.3710     3.5980 c3         1 ER0      -0.074400
     20 C20         -1.6600     9.3690     4.7390 c3         1 ER0      -0.069400
     21 C21         -2.6640    10.4680     4.3160 c3         1 ER0      -0.139400
     22 C22         -2.9490    11.4340     5.4680 c          1 ER0       0.588100
     23 O1          -2.2430    12.3970     5.7350 o          1 ER0      -0.488000
     24 O2          -4.0380    11.0380     6.2060 os         1 ER0      -0.459100
     25 C23         -4.4420    11.8420     7.3440 c3         1 ER0       0.131600
     26 C24         -5.1780    13.1180     6.8360 c3         1 ER0       0.163300
     27 O3          -6.1380    12.7340     5.8250 oh         1 ER0      -0.715000
     28 C25         -5.8670    13.9680     7.9610 c3         1 ER0       0.181300
     29 O4          -6.8350    13.1990     8.7010 oh         1 ER0      -0.637000
     30 C26         -4.8750    14.5900     8.9850 c3         1 ER0       0.126600
     31 O5          -4.4390    13.6030     9.9400 oh         1 ER0      -0.709000
     32 H1           2.6110    -8.6190     3.3600 hc         1 ER0       0.031700
     33 H2           1.0680    -7.8400     2.9490 hc         1 ER0       0.031700
     34 H3           2.5780    -7.2830     2.1960 hc         1 ER0       0.031700
     35 H4           3.4220    -6.5180     4.4010 hc         1 ER0       0.043700
     36 H5           2.2040    -8.2160     5.8020 hc         1 ER0       0.031700
     37 H6           2.0610    -6.5810     6.4560 hc         1 ER0       0.031700
     38 H7           0.6960    -7.3050     5.5740 hc         1 ER0       0.031700
     39 H8           0.6490    -5.3630     3.7980 hc         1 ER0       0.037200
     40 H9           2.1280    -4.9580     2.9370 hc         1 ER0       0.037200
     41 H10          3.1200    -4.0860     5.0900 hc         1 ER0       0.037700
     42 H11          1.5790    -4.3820     5.8990 hc         1 ER0       0.037700
     43 H12          0.4420    -2.8530     4.2440 hc         1 ER0       0.038200
     44 H13          2.0080    -2.4910     3.5290 hc         1 ER0       0.038200
     45 H14          1.2570    -1.9560     6.4460 hc         1 ER0       0.042700
     46 H15          3.2900    -0.4510     6.4730 hc         1 ER0       0.031367
     47 H16          3.6710    -2.1680     6.3000 hc         1 ER0       0.031367
     48 H17          3.7490    -1.1010     4.8840 hc         1 ER0       0.031367
     49 H18          0.9970     0.3950     5.9370 hc         1 ER0       0.036200
     50 H19         -0.1450    -0.5730     5.0260 hc         1 ER0       0.036200
     51 H20          1.2780    -0.3390     2.9720 hc         1 ER0       0.039200
     52 H21          2.4350     0.6400     3.8780 hc         1 ER0       0.039200
     53 H22          0.5870     2.2830     4.3740 hc         1 ER0       0.037200
     54 H23         -0.4950     1.3660     3.3340 hc         1 ER0       0.037200
     55 H24          2.0940     2.7510     2.4490 hc         1 ER0       0.043700
     56 H25          1.7630     0.7770     1.0240 hc         1 ER0       0.032033
     57 H26          0.0610     1.2100     0.7460 hc         1 ER0       0.032033
     58 H27          1.3670     2.2220     0.0950 hc         1 ER0       0.032033
     59 H28          0.5990     4.2500     1.1150 hc         1 ER0       0.037200
     60 H29         -0.8120     3.5110     1.8570 hc         1 ER0       0.037200
     61 H30         -0.1340     4.3900     4.0870 hc         1 ER0       0.039700
     62 H31          1.3840     4.9840     3.4070 hc         1 ER0       0.039700
     63 H32          0.1300     6.5970     1.9780 hc         1 ER0       0.036700
     64 H33         -1.3970     5.9080     2.5100 hc         1 ER0       0.036700
     65 H34         -0.9330     6.6670     4.8490 hc         1 ER0       0.046700
     66 H35          0.8970     8.3000     5.3280 hc         1 ER0       0.033367
     67 H36          1.5640     6.7630     4.8030 hc         1 ER0       0.033367
     68 H37          1.5010     8.1260     3.6660 hc         1 ER0       0.033367
     69 H38         -0.8730     8.9130     2.7680 hc         1 ER0       0.038700
     70 H39         -2.2970     7.9840     3.2140 hc         1 ER0       0.038700
     71 H40         -2.0680     8.8210     5.5980 hc         1 ER0       0.052700
     72 H41         -0.7360     9.8540     5.0760 hc         1 ER0       0.052700
     73 H42         -2.2460    11.0290     3.4720 hc         1 ER0       0.069200
     74 H43         -3.5970     9.9710     4.0270 hc         1 ER0       0.069200
     75 H44         -5.1260    11.2670     7.9820 h1         1 ER0       0.090700
     76 H45         -3.5770    12.1200     7.9610 h1         1 ER0       0.090700
     77 H46         -4.4230    13.7670     6.3720 h1         1 ER0       0.040700
     78 H47         -5.8270    11.8600     5.4910 ho         1 ER0       0.510000
     79 H48         -6.3730    14.8040     7.4600 h1         1 ER0       0.044700
     80 H49         -6.3560    12.9620     9.5290 ho         1 ER0       0.443000
     81 H50         -4.0160    15.0140     8.4470 h1         1 ER0       0.023200
     82 H51         -5.3780    15.4170     9.5050 h1         1 ER0       0.023200
     83 H52         -3.8200    14.0540    10.5640 ho         1 ER0       0.506000
@<TRIPOS>BOND
     1     1     2 1   
     2     1    32 1   
     3     1    33 1   
     4     1    34 1   
     5     2     3 1   
     6     2     4 1   
     7     2    35 1   
     8     3    36 1   
     9     3    37 1   
    10     3    38 1   
    11     4     5 1   
    12     4    39 1   
    13     4    40 1   
    14     5     6 1   
    15     5    41 1   
    16     5    42 1   
    17     6     7 1   
    18     6    43 1   
    19     6    44 1   
    20     7     8 1   
    21     7     9 1   
    22     7    45 1   
    23     8    46 1   
    24     8    47 1   
    25     8    48 1   
    26     9    10 1   
    27     9    49 1   
    28     9    50 1   
    29    10    11 1   
    30    10    51 1   
    31    10    52 1   
    32    11    12 1   
    33    11    53 1   
    34    11    54 1   
    35    12    13 1   
    36    12    14 1   
    37    12    55 1   
    38    13    56 1   
    39    13    57 1   
    40    13    58 1   
    41    14    15 1   
    42    14    59 1   
    43    14    60 1   
    44    15    16 1   
    45    15    61 1   
    46    15    62 1   
    47    16    17 1   
    48    16    63 1   
    49    16    64 1   
    50    17    18 1   
    51    17    19 1   
    52    17    65 1   
    53    18    66 1   
    54    18    67 1   
    55    18    68 1   
    56    19    20 1   
    57    19    69 1   
    58    19    70 1   
    59    20    21 1   
    60    20    71 1   
    61    20    72 1   
    62    21    22 1   
    63    21    73 1   
    64    21    74 1   
    65    22    23 2   
    66    22    24 1   
    67    24    25 1   
    68    25    26 1   
    69    25    75 1   
    70    25    76 1   
    71    26    27 1   
    72    26    28 1   
    73    26    77 1   
    74    27    78 1   
    75    28    29 1   
    76    28    30 1   
    77    28    79 1   
    78    29    80 1   
    79    30    31 1   
    80    30    81 1   
    81    30    82 1   
    82    31    83 1   
@<TRIPOS>SUBSTRUCTURE
     1 ER0         1 TEMP              0 ****  ****    0 ROOT
