@<TRIPOS>MOLECULE
ER4
   60    63     1     0     0
SMALL
abcg2


@<TRIPOS>ATOM
      1 CAQ          5.0240     1.4520     0.2480 c6         1 ER4       0.144300
      2 CAO          4.3320     0.5500     1.2960 c6         1 ER4      -0.105900
      3 CBB          4.7010    -0.9020     0.9850 c6         1 ER4      -0.049700
      4 CAP          6.2260    -0.9970     0.8830 c6         1 ER4      -0.105900
      5 CAR          6.6780    -0.1610    -0.3340 c6         1 ER4       0.144300
      6 NBC          5.5810     0.6580    -0.8430 n3         1 ER4      -0.676600
      7 CAT          4.5470    -0.1950    -1.3910 c6         1 ER4       0.128800
      8 CBD          4.0780    -1.2860    -0.3730 c6         1 ER4       0.239100
      9 OAB          4.5610    -2.5700    -0.7100 oh         1 ER4      -0.644000
     10 CAD          2.6130    -1.3270    -0.2800 c1         1 ER4      -0.159100
     11 CAC          1.4110    -1.3760    -0.1990 cg         1 ER4      -0.087000
     12 CAY         -0.0020    -1.4700    -0.0610 ca         1 ER4      -0.063000
     13 CAJ         -0.5740    -2.4980     0.7040 ca         1 ER4      -0.023000
     14 CAK         -1.9350    -2.5710     0.8600 ca         1 ER4      -0.190000
     15 CAZ         -2.7070    -1.5860     0.2330 ca         1 ER4       0.605300
     16 OAW         -4.0260    -1.6450     0.4000 os         1 ER4      -0.461300
     17 CAN         -4.8340    -0.6220    -0.1810 c3         1 ER4       0.173600
     18 CAL         -6.2700    -0.8970     0.2150 c3         1 ER4      -0.090400
     19 CAM         -7.1910     0.1650    -0.3560 c3         1 ER4       0.161600
     20 OAV         -8.5110    -0.1230     0.0290 os         1 ER4      -0.452000
     21 CAA         -9.4310     0.8230    -0.4510 c3         1 ER4       0.146900
     22 NAU         -2.1890    -0.6260    -0.5020 nb         1 ER4      -0.774000
     23 CBA         -0.8690    -0.5510    -0.6570 ca         1 ER4       0.426300
     24 CAS         -0.3580     0.6050    -1.4700 c3         1 ER4      -0.084400
     25 CAX         -0.0630     1.7940    -0.5880 ca         1 ER4      -0.079300
     26 CAH          1.2460     2.2090    -0.3720 ca         1 ER4      -0.100500
     27 CAF          1.5240     3.2930     0.4510 ca         1 ER4      -0.112500
     28 CAE          0.4880     3.9750     1.0730 ca         1 ER4      -0.108000
     29 CAG         -0.8250     3.5680     0.8640 ca         1 ER4      -0.112500
     30 CAI         -1.0970     2.4860     0.0410 ca         1 ER4      -0.100500
     31 H1           4.3260     2.1820    -0.1730 h1         1 ER4       0.054700
     32 H2           5.8380     2.0240     0.6980 h1         1 ER4       0.054700
     33 H3           4.6600     0.8010     2.3050 hc         1 ER4       0.053700
     34 H4           3.2480     0.6800     1.2790 hc         1 ER4       0.053700
     35 H5           4.3230    -1.5680     1.7630 hc         1 ER4       0.072700
     36 H6           6.6570    -0.6040     1.8080 hc         1 ER4       0.053700
     37 H7           6.5590    -2.0310     0.8000 hc         1 ER4       0.053700
     38 H8           7.5120     0.4940    -0.0750 h1         1 ER4       0.054700
     39 H9           7.0230    -0.8050    -1.1460 h1         1 ER4       0.054700
     40 H11          3.7080     0.4330    -1.7020 h1         1 ER4       0.060700
     41 H12          4.9210    -0.6880    -2.2920 h1         1 ER4       0.060700
     42 H13          4.2590    -2.7880    -1.5990 ho         1 ER4       0.448000
     43 H14          0.0650    -3.2350     1.1740 ha         1 ER4       0.129000
     44 H15         -2.3990    -3.3530     1.4460 ha         1 ER4       0.142000
     45 H16         -4.5110     0.3590     0.1780 h1         1 ER4       0.047700
     46 H17         -4.7210    -0.6260    -1.2690 h1         1 ER4       0.047700
     47 H18         -6.5730    -1.8800    -0.1540 hc         1 ER4       0.067200
     48 H19         -6.3570    -0.9080     1.3040 hc         1 ER4       0.067200
     49 H20         -6.8890     1.1590     0.0070 h1         1 ER4       0.021200
     50 H21         -7.1030     0.1910    -1.4520 h1         1 ER4       0.021200
     51 H22        -10.4230     0.5360    -0.1040 h1         1 ER4       0.029367
     52 H23         -9.2150     1.8330    -0.0810 h1         1 ER4       0.029367
     53 H24         -9.4460     0.8640    -1.5460 h1         1 ER4       0.029367
     54 H25          0.5440     0.3170    -2.0110 hc         1 ER4       0.067700
     55 H26         -1.1160     0.8670    -2.2110 hc         1 ER4       0.067700
     56 H27          2.0560     1.6790    -0.8590 ha         1 ER4       0.116000
     57 H28          2.5490     3.6060     0.6050 ha         1 ER4       0.111500
     58 H29          0.7000     4.8220     1.7140 ha         1 ER4       0.112000
     59 H30         -1.6390     4.0980     1.3430 ha         1 ER4       0.111500
     60 H31         -2.1230     2.1720    -0.1160 ha         1 ER4       0.116000
@<TRIPOS>BOND
     1     1     2 1   
     2     1     6 1   
     3     1    31 1   
     4     1    32 1   
     5     2     3 1   
     6     2    33 1   
     7     2    34 1   
     8     3     4 1   
     9     3     8 1   
    10     3    35 1   
    11     4     5 1   
    12     4    36 1   
    13     4    37 1   
    14     5     6 1   
    15     5    38 1   
    16     5    39 1   
    17     6     7 1   
    18     7     8 1   
    19     7    40 1   
    20     7    41 1   
    21     8     9 1   
    22     8    10 1   
    23     9    42 1   
    24    10    11 3   
    25    11    12 1   
    26    12    13 ar  
    27    12    23 ar  
    28    13    14 ar  
    29    13    43 1   
    30    14    15 ar  
    31    14    44 1   
    32    15    16 1   
    33    15    22 ar  
    34    16    17 1   
    35    17    18 1   
    36    17    45 1   
    37    17    46 1   
    38    18    19 1   
    39    18    47 1   
    40    18    48 1   
    41    19    20 1   
    42    19    49 1   
    43    19    50 1   
    44    20    21 1   
    45    21    51 1   
    46    21    52 1   
    47    21    53 1   
    48    22    23 ar  
    49    23    24 1   
    50    24    25 1   
    51    24    54 1   
    52    24    55 1   
    53    25    26 ar  
    54    25    30 ar  
    55    26    27 ar  
    56    26    56 1   
    57    27    28 ar  
    58    27    57 1   
    59    28    29 ar  
    60    28    58 1   
    61    29    30 ar  
    62    29    59 1   
    63    30    60 1   
@<TRIPOS>SUBSTRUCTURE
     1 ER4         1 TEMP              0 ****  ****    0 ROOT
