@<TRIPOS>MOLECULE
ER4
   60    63     1     0     0
SMALL
No Charge or Current Charge


@<TRIPOS>ATOM
      1 CAQ          4.7650     1.5220    -0.3810 c6         1 ER4       0.144300
      2 CAO          4.2120     0.9750     0.9750 c6         1 ER4      -0.105900
      3 CBB          4.5960    -0.5300     1.1330 c6         1 ER4      -0.049700
      4 CAP          6.1550    -0.5870     1.0780 c6         1 ER4      -0.105900
      5 CAR          6.6560    -0.0270    -0.2930 c6         1 ER4       0.144300
      6 NBC          5.5080     0.4560    -1.1230 n3         1 ER4      -0.676600
      7 CAT          4.5760    -0.6910    -1.4080 c6         1 ER4       0.128800
      8 CBD          4.0170    -1.3450    -0.0800 c6         1 ER4       0.239100
      9 OAB          4.4130    -2.7180     0.0150 oh         1 ER4      -0.644000
     10 CAD          2.5390    -1.3720    -0.0670 c1         1 ER4      -0.159100
     11 CAC          1.3250    -1.4000    -0.0310 cg         1 ER4      -0.087000
     12 CAY         -0.1100    -1.4440     0.0310 ca         1 ER4      -0.063000
     13 CAJ         -0.7310    -2.5300     0.6690 ca         1 ER4      -0.023000
     14 CAK         -2.1320    -2.5560     0.7270 ca         1 ER4      -0.190000
     15 CAZ         -2.8680    -1.5120     0.1530 ca         1 ER4       0.605300
     16 OAW         -4.2380    -1.5770     0.2330 os         1 ER4      -0.461300
     17 CAN         -5.0660    -0.5400    -0.3230 c3         1 ER4       0.173600
     18 CAL         -6.5320    -0.9240    -0.0580 c3         1 ER4      -0.090400
     19 CAM         -7.5220     0.1170    -0.6100 c3         1 ER4       0.161600
     20 OAV         -8.8490    -0.3410    -0.3080 os         1 ER4      -0.452000
     21 CAA         -9.8970     0.5320    -0.7630 c3         1 ER4       0.146900
     22 NAU         -2.2820    -0.4640    -0.4630 nb         1 ER4      -0.774000
     23 CBA         -0.9280    -0.4260    -0.5230 ca         1 ER4       0.426300
     24 CAS         -0.3470     0.7990    -1.2340 c3         1 ER4      -0.084400
     25 CAX          0.3310     1.8170    -0.3140 ca         1 ER4      -0.079300
     26 CAH          1.2740     2.7120    -0.8590 ca         1 ER4      -0.100500
     27 CAF          1.9070     3.6670    -0.0450 ca         1 ER4      -0.112500
     28 CAE          1.6050     3.7340     1.3250 ca         1 ER4      -0.108000
     29 CAG          0.6620     2.8520     1.8760 ca         1 ER4      -0.112500
     30 CAI          0.0230     1.9010     1.0620 ca         1 ER4      -0.100500
     31 H1           3.9290     1.8940    -0.9910 h1         1 ER4       0.054700
     32 H2           5.4200     2.3840    -0.1850 h1         1 ER4       0.054700
     33 H3           4.6250     1.5610     1.8070 hc         1 ER4       0.053700
     34 H4           3.1240     1.1110     1.0220 hc         1 ER4       0.053700
     35 H5           4.2270    -0.9290     2.0880 hc         1 ER4       0.072700
     36 H6           6.5840     0.0030     1.8990 hc         1 ER4       0.053700
     37 H7           6.5170    -1.6140     1.2200 hc         1 ER4       0.053700
     38 H8           7.3700     0.7900    -0.1120 h1         1 ER4       0.054700
     39 H9           7.2060    -0.8160    -0.8260 h1         1 ER4       0.054700
     40 H11          3.7390    -0.3390    -2.0310 h1         1 ER4       0.060700
     41 H12          5.0950    -1.4580    -2.0010 h1         1 ER4       0.060700
     42 H13          3.7030    -3.2280    -0.4290 ho         1 ER4       0.448000
     43 H14         -0.1440    -3.3330     1.1110 ha         1 ER4       0.129000
     44 H15         -2.6520    -3.3760     1.2110 ha         1 ER4       0.142000
     45 H16         -4.8490     0.4280     0.1490 h1         1 ER4       0.047700
     46 H17         -4.9010    -0.4460    -1.4050 h1         1 ER4       0.047700
     47 H18         -6.7380    -1.8970    -0.5190 hc         1 ER4       0.067200
     48 H19         -6.6870    -1.0310     1.0220 hc         1 ER4       0.067200
     49 H20         -7.3310     1.0910    -0.1410 h1         1 ER4       0.021200
     50 H21         -7.3830     0.2180    -1.6950 h1         1 ER4       0.021200
     51 H22        -10.8790     0.1190    -0.4990 h1         1 ER4       0.029367
     52 H23         -9.8070     1.5240    -0.3010 h1         1 ER4       0.029367
     53 H24         -9.8590     0.6510    -1.8540 h1         1 ER4       0.029367
     54 H25          0.3660     0.4560    -1.9930 hc         1 ER4       0.067700
     55 H26         -1.1360     1.3100    -1.7990 hc         1 ER4       0.067700
     56 H27          1.5160     2.6680    -1.9190 ha         1 ER4       0.116000
     57 H28          2.6340     4.3520    -0.4750 ha         1 ER4       0.111500
     58 H29          2.0980     4.4710     1.9560 ha         1 ER4       0.112000
     59 H30          0.4220     2.9080     2.9360 ha         1 ER4       0.111500
     60 H31         -0.7120     1.2370     1.5090 ha         1 ER4       0.116000
@<TRIPOS>BOND
     1     1     2 1   
     2     1     6 1   
     3     1    31 1   
     4     1    32 1   
     5     2     3 1   
     6     2    33 1   
     7     2    34 1   
     8     3     4 1   
     9     3     8 1   
    10     3    35 1   
    11     4     5 1   
    12     4    36 1   
    13     4    37 1   
    14     5     6 1   
    15     5    38 1   
    16     5    39 1   
    17     6     7 1   
    18     7     8 1   
    19     7    40 1   
    20     7    41 1   
    21     8     9 1   
    22     8    10 1   
    23     9    42 1   
    24    10    11 3   
    25    11    12 1   
    26    12    13 ar  
    27    12    23 ar  
    28    13    14 ar  
    29    13    43 1   
    30    14    15 ar  
    31    14    44 1   
    32    15    16 1   
    33    15    22 ar  
    34    16    17 1   
    35    17    18 1   
    36    17    45 1   
    37    17    46 1   
    38    18    19 1   
    39    18    47 1   
    40    18    48 1   
    41    19    20 1   
    42    19    49 1   
    43    19    50 1   
    44    20    21 1   
    45    21    51 1   
    46    21    52 1   
    47    21    53 1   
    48    22    23 ar  
    49    23    24 1   
    50    24    25 1   
    51    24    54 1   
    52    24    55 1   
    53    25    26 ar  
    54    25    30 ar  
    55    26    27 ar  
    56    26    56 1   
    57    27    28 ar  
    58    27    57 1   
    59    28    29 ar  
    60    28    58 1   
    61    29    30 ar  
    62    29    59 1   
    63    30    60 1   
@<TRIPOS>SUBSTRUCTURE
     1 ER4         1 TEMP              0 ****  ****    0 ROOT
