@<TRIPOS>MOLECULE
ER5
   72    74     1     0     0
SMALL
abcg2


@<TRIPOS>ATOM
      1 F15         -0.3400     0.9400     0.0610 f          1 ER5      -0.157000
      2 C9          -0.6100    -0.3350    -0.2200 ca         1 ER5       0.142000
      3 C10         -0.0570    -0.8740    -1.3690 ca         1 ER5      -0.128000
      4 S30          0.9340     0.0760    -2.4670 ss         1 ER5      -0.192000
      5 C31          2.4500     0.2770    -1.4640 c3         1 ER5       0.076600
      6 C32          3.4680     1.0800    -2.2680 c3         1 ER5      -0.009100
      7 C33          4.7200     1.2660    -1.4560 ca         1 ER5      -0.130300
      8 C34          5.7710     0.3560    -1.5400 ca         1 ER5      -0.135000
      9 C35          6.9010     0.5010    -0.7480 ca         1 ER5      -0.089000
     10 C36          7.0150     1.5560     0.1540 ca         1 ER5      -0.124600
     11 C39          8.2510     1.7080     1.0310 c          1 ER5       0.711600
     12 O40          9.1480     0.8550     0.8850 o          1 ER5      -0.718500
     13 O41          8.2600     2.6690     1.8230 o          1 ER5      -0.718500
     14 C37          5.9650     2.4670     0.2330 ca         1 ER5      -0.089000
     15 C38          4.8350     2.3250    -0.5590 ca         1 ER5      -0.135000
     16 C11         -0.3780    -2.1900    -1.6600 ca         1 ER5       0.168000
     17 F14          0.0980    -2.7690    -2.7540 f          1 ER5      -0.136000
     18 C12         -1.1880    -2.9210    -0.8180 ca         1 ER5       0.191000
     19 F13         -1.4490    -4.1840    -1.1460 f          1 ER5      -0.148000
     20 C8          -1.4470    -1.0270     0.6560 ca         1 ER5       0.309000
     21 C7          -1.6900    -2.3740     0.3560 ca         1 ER5      -0.227500
     22 S37         -2.6100    -3.5000     1.4130 sy         1 ER5       1.169600
     23 O38         -3.7300    -3.9760     0.6200 o          1 ER5      -0.534500
     24 N40         -1.5300    -4.7220     1.5950 n8         1 ER5      -1.045100
     25 O39         -2.8430    -2.8970     2.7060 o          1 ER5      -0.534500
     26 N16         -2.0180    -0.3730     1.7570 nu         1 ER5      -0.910200
     27 C18         -3.1900     0.4910     1.4990 c3         1 ER5       0.198500
     28 C19         -4.3370    -0.2780     0.8310 c3         1 ER5      -0.076900
     29 C20         -4.3660    -0.3380    -0.7030 c3         1 ER5      -0.076900
     30 C21         -4.6610     1.0100    -1.3830 c3         1 ER5      -0.080400
     31 C22         -3.4340     1.7510    -1.9260 c3         1 ER5      -0.073400
     32 C23         -3.5910     3.2720    -2.0030 c3         1 ER5      -0.071400
     33 C24         -3.6540     3.9390    -0.6170 c3         1 ER5      -0.079400
     34 C25         -5.0530     4.3460    -0.1430 c3         1 ER5      -0.071400
     35 C26         -5.2190     4.3820     1.3780 c3         1 ER5      -0.073400
     36 C27         -5.1630     2.9820     2.0170 c3         1 ER5      -0.080400
     37 C28         -3.8660     2.6300     2.7500 c3         1 ER5      -0.076900
     38 C29         -3.5840     1.1290     2.8480 c3         1 ER5      -0.076900
     39 H1           2.2030     0.7960    -0.5380 h1         1 ER5       0.071700
     40 H2           2.8420    -0.7100    -1.2180 h1         1 ER5       0.071700
     41 H3           3.6960     0.5590    -3.2010 hc         1 ER5       0.047200
     42 H4           3.0430     2.0500    -2.5350 hc         1 ER5       0.047200
     43 H5           5.7060    -0.4740    -2.2330 ha         1 ER5       0.085500
     44 H6           7.7070    -0.2160    -0.8320 ha         1 ER5       0.128000
     45 H8           6.0320     3.2980     0.9230 ha         1 ER5       0.128000
     46 H9           4.0310     3.0480    -0.4780 ha         1 ER5       0.085500
     47 H10         -1.1470    -4.7910     2.5290 hn         1 ER5       0.490500
     48 H11         -1.8430    -5.6130     1.2310 hn         1 ER5       0.490500
     49 H12         -1.3110     0.1800     2.2260 hn         1 ER5       0.448000
     50 H13         -2.9040     1.3130     0.8300 h1         1 ER5       0.038700
     51 H14         -4.3710    -1.2880     1.2440 hc         1 ER5       0.050700
     52 H15         -5.2790     0.1760     1.1490 hc         1 ER5       0.050700
     53 H16         -3.4410    -0.7590    -1.1060 hc         1 ER5       0.042450
     54 H17         -5.1460    -1.0550    -0.9710 hc         1 ER5       0.042450
     55 H18         -5.3590     0.8550    -2.2110 hc         1 ER5       0.037200
     56 H19         -5.2020     1.6470    -0.6820 hc         1 ER5       0.037200
     57 H20         -2.5630     1.5390    -1.3000 hc         1 ER5       0.038950
     58 H21         -3.1840     1.3510    -2.9130 hc         1 ER5       0.038950
     59 H22         -2.7440     3.6740    -2.5640 hc         1 ER5       0.036200
     60 H23         -4.4820     3.5280    -2.5870 hc         1 ER5       0.036200
     61 H24         -3.1950     3.2590     0.1060 hc         1 ER5       0.040200
     62 H25         -3.0170     4.8270    -0.6030 hc         1 ER5       0.040200
     63 H26         -5.3010     5.3240    -0.5650 hc         1 ER5       0.036200
     64 H27         -5.8000     3.6570    -0.5490 hc         1 ER5       0.036200
     65 H28         -4.4600     5.0350     1.8240 hc         1 ER5       0.038950
     66 H29         -6.1800     4.8480     1.6070 hc         1 ER5       0.038950
     67 H30         -5.9930     2.8550     2.7170 hc         1 ER5       0.037200
     68 H31         -5.3400     2.2440     1.2340 hc         1 ER5       0.037200
     69 H32         -3.0110     3.1070     2.2600 hc         1 ER5       0.042450
     70 H33         -3.8980     3.0560     3.7560 hc         1 ER5       0.042450
     71 H34         -4.4400     0.6010     3.2780 hc         1 ER5       0.050700
     72 H35         -2.7640     0.9890     3.5570 hc         1 ER5       0.050700
@<TRIPOS>BOND
     1     1     2 1   
     2     2     3 ar  
     3     2    20 ar  
     4     3     4 1   
     5     3    16 ar  
     6     4     5 1   
     7     5     6 1   
     8     5    39 1   
     9     5    40 1   
    10     6     7 1   
    11     6    41 1   
    12     6    42 1   
    13     7     8 ar  
    14     7    15 ar  
    15     8     9 ar  
    16     8    43 1   
    17     9    10 ar  
    18     9    44 1   
    19    10    11 1   
    20    10    14 ar  
    21    11    12 1   
    22    11    13 1   
    23    14    15 ar  
    24    14    45 1   
    25    15    46 1   
    26    16    17 1   
    27    16    18 ar  
    28    18    19 1   
    29    18    21 ar  
    30    20    21 ar  
    31    20    26 1   
    32    21    22 1   
    33    22    23 2   
    34    22    24 1   
    35    22    25 2   
    36    24    47 1   
    37    24    48 1   
    38    26    27 1   
    39    26    49 1   
    40    27    28 1   
    41    27    38 1   
    42    27    50 1   
    43    28    29 1   
    44    28    51 1   
    45    28    52 1   
    46    29    30 1   
    47    29    53 1   
    48    29    54 1   
    49    30    31 1   
    50    30    55 1   
    51    30    56 1   
    52    31    32 1   
    53    31    57 1   
    54    31    58 1   
    55    32    33 1   
    56    32    59 1   
    57    32    60 1   
    58    33    34 1   
    59    33    61 1   
    60    33    62 1   
    61    34    35 1   
    62    34    63 1   
    63    34    64 1   
    64    35    36 1   
    65    35    65 1   
    66    35    66 1   
    67    36    37 1   
    68    36    67 1   
    69    36    68 1   
    70    37    38 1   
    71    37    69 1   
    72    37    70 1   
    73    38    71 1   
    74    38    72 1   
@<TRIPOS>SUBSTRUCTURE
     1 ER5         1 TEMP              0 ****  ****    0 ROOT
