@<TRIPOS>MOLECULE
ER5
   72    74     1     0     0
SMALL
No Charge or Current Charge


@<TRIPOS>ATOM
      1 F15         -0.5750     0.7660     0.0600 f          1 ER5      -0.157000
      2 C9          -0.8220    -0.4930    -0.3820 ca         1 ER5       0.142000
      3 C10         -0.2160    -0.9140    -1.5810 ca         1 ER5      -0.128000
      4 S30          0.8470     0.1890    -2.5220 ss         1 ER5      -0.192000
      5 C31          2.2570     0.5130    -1.3720 c3         1 ER5       0.076600
      6 C32          3.3090     1.4140    -2.0440 c3         1 ER5      -0.009100
      7 C33          4.4850     1.7000    -1.1190 ca         1 ER5      -0.130300
      8 C34          5.6470     0.9110    -1.1790 ca         1 ER5      -0.135000
      9 C35          6.7310     1.1720    -0.3220 ca         1 ER5      -0.089000
     10 C36          6.6730     2.2290     0.6170 ca         1 ER5      -0.124600
     11 C39          7.8440     2.5120     1.5460 c          1 ER5       0.711600
     12 O40          8.8410     1.8060     1.4660 o          1 ER5      -0.718500
     13 O41          7.7520     3.4370     2.3420 o          1 ER5      -0.718500
     14 C37          5.4980     3.0150     0.6710 ca         1 ER5      -0.089000
     15 C38          4.4170     2.7510    -0.1880 ca         1 ER5      -0.135000
     16 C11         -0.4730    -2.2090    -2.0540 ca         1 ER5       0.168000
     17 F14          0.0900    -2.6250    -3.2130 f          1 ER5      -0.136000
     18 C12         -1.2960    -3.0860    -1.3260 ca         1 ER5       0.191000
     19 F13         -1.5010    -4.3310    -1.8200 f          1 ER5      -0.148000
     20 C8          -1.6860    -1.3580     0.3540 ca         1 ER5       0.309000
     21 C7          -1.8960    -2.6810    -0.1110 ca         1 ER5      -0.227500
     22 S37         -2.9160    -3.8740     0.7640 sy         1 ER5       1.169600
     23 O38         -3.8710    -4.5010    -0.1450 o          1 ER5      -0.534500
     24 N40         -1.8900    -5.0940     1.1020 n8         1 ER5      -1.045100
     25 O39         -3.3160    -3.4010     2.0870 o          1 ER5      -0.534500
     26 N16         -2.3330    -0.8810     1.5090 nu         1 ER5      -0.910200
     27 C18         -3.1760     0.3230     1.5470 c3         1 ER5       0.198500
     28 C19         -4.6710    -0.0920     1.4900 c3         1 ER5      -0.076900
     29 C20         -5.2210    -0.3990     0.0660 c3         1 ER5      -0.076900
     30 C21         -5.2970     0.8370    -0.8730 c3         1 ER5      -0.080400
     31 C22         -4.0990     1.0060    -1.8470 c3         1 ER5      -0.073400
     32 C23         -3.7880     2.4630    -2.2880 c3         1 ER5      -0.071400
     33 C24         -3.1430     3.3560    -1.1890 c3         1 ER5      -0.079400
     34 C25         -4.1200     4.2940    -0.4310 c3         1 ER5      -0.071400
     35 C26         -3.7190     4.6430     1.0310 c3         1 ER5      -0.073400
     36 C27         -3.8980     3.4770     2.0440 c3         1 ER5      -0.080400
     37 C28         -2.6000     2.7080     2.4120 c3         1 ER5      -0.076900
     38 C29         -2.7930     1.2070     2.7690 c3         1 ER5      -0.076900
     39 H1           1.8850     1.0010    -0.4630 h1         1 ER5       0.071700
     40 H2           2.7150    -0.4430    -1.0910 h1         1 ER5       0.071700
     41 H3           3.6570     0.9310    -2.9650 hc         1 ER5       0.047200
     42 H4           2.8320     2.3540    -2.3480 hc         1 ER5       0.047200
     43 H5           5.7150     0.0920    -1.8910 ha         1 ER5       0.085500
     44 H6           7.6180     0.5460    -0.3900 ha         1 ER5       0.128000
     45 H8           5.4180     3.8350     1.3810 ha         1 ER5       0.128000
     46 H9           3.5230     3.3680    -0.1270 ha         1 ER5       0.085500
     47 H10         -2.0840    -5.2210     2.0930 hn         1 ER5       0.490500
     48 H11         -2.3980    -5.8710     0.6850 hn         1 ER5       0.490500
     49 H12         -2.6730    -1.6310     2.1170 hn         1 ER5       0.448000
     50 H13         -2.9650     0.9280     0.6630 h1         1 ER5       0.038700
     51 H14         -4.8290    -0.9660     2.1330 hc         1 ER5       0.050700
     52 H15         -5.2930     0.6970     1.9270 hc         1 ER5       0.050700
     53 H16         -4.6380    -1.1990    -0.4050 hc         1 ER5       0.042450
     54 H17         -6.2370    -0.7960     0.1850 hc         1 ER5       0.042450
     55 H18         -6.2110     0.7660    -1.4760 hc         1 ER5       0.037200
     56 H19         -5.4240     1.7290    -0.2580 hc         1 ER5       0.037200
     57 H20         -3.1920     0.5670    -1.4230 hc         1 ER5       0.038950
     58 H21         -4.3100     0.4100    -2.7440 hc         1 ER5       0.038950
     59 H22         -3.0820     2.4060    -3.1260 hc         1 ER5       0.036200
     60 H23         -4.6920     2.9400    -2.6870 hc         1 ER5       0.036200
     61 H24         -2.5990     2.7170    -0.4920 hc         1 ER5       0.040200
     62 H25         -2.3760     3.9850    -1.6570 hc         1 ER5       0.040200
     63 H26         -4.1970     5.2280    -1.0000 hc         1 ER5       0.036200
     64 H27         -5.1330     3.8790    -0.4270 hc         1 ER5       0.036200
     65 H28         -2.6910     5.0260     1.0600 hc         1 ER5       0.038950
     66 H29         -4.3600     5.4710     1.3570 hc         1 ER5       0.038950
     67 H30         -4.3220     3.8800     2.9720 hc         1 ER5       0.037200
     68 H31         -4.6540     2.7930     1.6550 hc         1 ER5       0.037200
     69 H32         -1.8680     2.7820     1.6010 hc         1 ER5       0.042450
     70 H33         -2.1350     3.2150     3.2670 hc         1 ER5       0.042450
     71 H34         -3.5360     1.1010     3.5680 hc         1 ER5       0.050700
     72 H35         -1.8440     0.8520     3.1910 hc         1 ER5       0.050700
@<TRIPOS>BOND
     1     1     2 1   
     2     2     3 ar  
     3     2    20 ar  
     4     3     4 1   
     5     3    16 ar  
     6     4     5 1   
     7     5     6 1   
     8     5    39 1   
     9     5    40 1   
    10     6     7 1   
    11     6    41 1   
    12     6    42 1   
    13     7     8 ar  
    14     7    15 ar  
    15     8     9 ar  
    16     8    43 1   
    17     9    10 ar  
    18     9    44 1   
    19    10    11 1   
    20    10    14 ar  
    21    11    12 1   
    22    11    13 1   
    23    14    15 ar  
    24    14    45 1   
    25    15    46 1   
    26    16    17 1   
    27    16    18 ar  
    28    18    19 1   
    29    18    21 ar  
    30    20    21 ar  
    31    20    26 1   
    32    21    22 1   
    33    22    23 2   
    34    22    24 1   
    35    22    25 2   
    36    24    47 1   
    37    24    48 1   
    38    26    27 1   
    39    26    49 1   
    40    27    28 1   
    41    27    38 1   
    42    27    50 1   
    43    28    29 1   
    44    28    51 1   
    45    28    52 1   
    46    29    30 1   
    47    29    53 1   
    48    29    54 1   
    49    30    31 1   
    50    30    55 1   
    51    30    56 1   
    52    31    32 1   
    53    31    57 1   
    54    31    58 1   
    55    32    33 1   
    56    32    59 1   
    57    32    60 1   
    58    33    34 1   
    59    33    61 1   
    60    33    62 1   
    61    34    35 1   
    62    34    63 1   
    63    34    64 1   
    64    35    36 1   
    65    35    65 1   
    66    35    66 1   
    67    36    37 1   
    68    36    67 1   
    69    36    68 1   
    70    37    38 1   
    71    37    69 1   
    72    37    70 1   
    73    38    71 1   
    74    38    72 1   
@<TRIPOS>SUBSTRUCTURE
     1 ER5         1 TEMP              0 ****  ****    0 ROOT
