@<TRIPOS>MOLECULE
ER6
   38    41     1     0     0
SMALL
No Charge or Current Charge


@<TRIPOS>ATOM
      1 C4          32.4600   -22.1280     5.8480 ca         1 ER6      -0.086000
      2 C14         33.5820   -15.4950     3.5040 c6         1 ER6      -0.041400
      3 C5          33.6140   -21.4430     5.4210 ca         1 ER6       0.330000
      4 C6          34.8200   -22.1800     5.2670 ca         1 ER6      -0.129000
      5 C11         37.2400   -21.9770     4.6840 cc         1 ER6      -0.227100
      6 C7          34.5930   -19.4660     4.7650 cc         1 ER6       0.697900
      7 C8          35.8530   -20.1490     4.6120 cc         1 ER6      -0.182000
      8 C9          37.1230   -19.7280     4.2880 cd         1 ER6      -0.227000
      9 C10         37.9720   -20.8660     4.3270 cd         1 ER6      -0.254000
     10 C12         35.1410   -17.5020     3.3000 c6         1 ER6       0.229800
     11 C13         34.1580   -16.5710     2.5550 c6         1 ER6      -0.085400
     12 N1          33.4720   -20.0550     5.1750 nd         1 ER6      -0.758000
     13 N2          35.9460   -21.4870     4.8520 na         1 ER6       0.169100
     14 C3          32.4880   -23.5070     6.1170 ca         1 ER6      -0.112000
     15 N3          34.5100   -18.1160     4.4940 nh         1 ER6      -0.758300
     16 C1          34.8460   -23.5680     5.5360 ca         1 ER6      -0.107000
     17 C15         32.9510   -16.1230     4.7790 c6         1 ER6      -0.212700
     18 C16         33.8880   -17.1610     5.4510 c6         1 ER6       0.244800
     19 C17         31.5140   -16.6640     4.5920 c          1 ER6       0.726000
     20 C2          33.6810   -24.2250     5.9590 ca         1 ER6      -0.140000
     21 O1          30.6370   -16.1640     5.2830 o          1 ER6      -0.727500
     22 O2          31.2820   -17.4890     3.7210 o          1 ER6      -0.727500
     23 H1          31.5310   -21.5780     5.9710 ha         1 ER6       0.145000
     24 H4          37.5240   -23.0120     4.8290 h4         1 ER6       0.209000
     25 H5          37.4340   -18.7100     4.0630 ha         1 ER6       0.200000
     26 H6          39.0420   -20.8610     4.1210 ha         1 ER6       0.189000
     27 H7          35.4820   -18.2790     2.6000 h1         1 ER6       0.027200
     28 H8          36.0220   -16.9190     3.6050 h1         1 ER6       0.027200
     29 H9          33.3490   -17.1670     2.1130 hc         1 ER6       0.049700
     30 H10         34.6750   -16.0880     1.7160 hc         1 ER6       0.049700
     31 H11         31.5840   -24.0160     6.4450 ha         1 ER6       0.105000
     32 H12         35.7570   -24.1480     5.4220 ha         1 ER6       0.103000
     33 H13         32.8560   -15.3160     5.5180 hc         1 ER6       0.036700
     34 H14         34.6940   -16.6120     5.9600 h1         1 ER6       0.045700
     35 H15         33.3330   -17.6860     6.2430 h1         1 ER6       0.045700
     36 H16         33.7040   -25.2930     6.1660 ha         1 ER6       0.100000
     37 H2          34.3930   -14.8160     3.8020 hc         1 ER6       0.021200
     38 H3          32.8410   -14.8790     2.9770 hc         1 ER6       0.021200
@<TRIPOS>BOND
     1     1     3 ar  
     2     1    14 ar  
     3     1    23 1   
     4     2    11 1   
     5     2    17 1   
     6     2    37 1   
     7     2    38 1   
     8     3     4 ar  
     9     3    12 1   
    10     4    13 1   
    11     4    16 ar  
    12     5     9 2   
    13     5    13 1   
    14     5    24 1   
    15     6     7 1   
    16     6    12 2   
    17     6    15 1   
    18     7     8 2   
    19     7    13 1   
    20     8     9 1   
    21     8    25 1   
    22     9    26 1   
    23    10    11 1   
    24    10    15 1   
    25    10    27 1   
    26    10    28 1   
    27    11    29 1   
    28    11    30 1   
    29    14    20 ar  
    30    14    31 1   
    31    15    18 1   
    32    16    20 ar  
    33    16    32 1   
    34    17    18 1   
    35    17    19 1   
    36    17    33 1   
    37    18    34 1   
    38    18    35 1   
    39    19    21 1   
    40    19    22 1   
    41    20    36 1   
@<TRIPOS>SUBSTRUCTURE
     1 ER6         1 TEMP              0 ****  ****    0 ROOT
