@<TRIPOS>MOLECULE
ER6
   38    41     1     0     0
SMALL
bcc


@<TRIPOS>ATOM
      1 C4          32.6010   -21.9310     6.3540 ca         1 ER6      -0.169300
      2 C14         33.6110   -15.4910     3.6080 c6         1 ER6      -0.041400
      3 C5          33.6840   -21.3260     5.6980 ca         1 ER6       0.460600
      4 C6          34.7380   -22.1540     5.2830 ca         1 ER6      -0.143600
      5 C11         37.0250   -22.0250     4.3550 cc         1 ER6      -0.177100
      6 C7          34.6280   -19.3930     4.8320 cc         1 ER6       0.763200
      7 C8          35.8250   -20.1340     4.4730 cc         1 ER6      -0.196600
      8 C9          37.0970   -19.8060     4.0290 cd         1 ER6      -0.177000
      9 C10         37.8390   -20.9960     3.9500 cd         1 ER6      -0.204000
     10 C12         35.3270   -17.3430     3.6090 c6         1 ER6       0.229800
     11 C13         34.4780   -16.4070     2.7590 c6         1 ER6      -0.085400
     12 N1          33.6490   -19.9840     5.4620 nd         1 ER6      -0.758000
     13 N2          35.8140   -21.5050     4.6820 na         1 ER6       0.067700
     14 C3          32.5710   -23.2920     6.5780 ca         1 ER6      -0.130000
     15 N3          34.5110   -18.0680     4.5660 nh         1 ER6      -0.758300
     16 C1          34.7090   -23.5280     5.5010 ca         1 ER6      -0.125000
     17 C15         32.7530   -16.3030     4.5700 c6         1 ER6      -0.212700
     18 C16         33.6530   -17.2220     5.3890 c6         1 ER6       0.244800
     19 C17         31.5650   -17.0560     3.9130 c          1 ER6       0.936600
     20 C2          33.6260   -24.0970     6.1470 ca         1 ER6      -0.158000
     21 O1          30.9170   -17.8100     4.6670 o          1 ER6      -0.832800
     22 O2          31.3200   -16.8250     2.7130 o          1 ER6      -0.832800
     23 H1          31.7840   -21.2980     6.6770 ha         1 ER6       0.163000
     24 H4          37.2370   -23.0770     4.4450 h4         1 ER6       0.159000
     25 H5          37.4740   -18.8240     3.8040 ha         1 ER6       0.150000
     26 H6          38.8650   -21.0940     3.6360 ha         1 ER6       0.139000
     27 H7          35.8220   -18.0440     2.9450 h1         1 ER6       0.027200
     28 H8          36.1030   -16.7670     4.1300 h1         1 ER6       0.027200
     29 H9          33.8440   -16.9990     2.0980 hc         1 ER6       0.049700
     30 H10         35.1530   -15.8280     2.1240 hc         1 ER6       0.049700
     31 H11         31.7240   -23.7360     7.0850 ha         1 ER6       0.123000
     32 H12         35.5230   -24.1590     5.1720 ha         1 ER6       0.121000
     33 H13         32.3010   -15.6140     5.2960 hc         1 ER6       0.036700
     34 H14         34.3070   -16.6070     6.0220 h1         1 ER6       0.045700
     35 H15         33.0590   -17.8550     6.0400 h1         1 ER6       0.045700
     36 H16         33.6050   -25.1650     6.3150 ha         1 ER6       0.118000
     37 H2          34.2580   -14.8190     4.1840 hc         1 ER6       0.021200
     38 H3          32.9920   -14.8570     2.9730 hc         1 ER6       0.021200
@<TRIPOS>BOND
     1     1     3 ar  
     2     1    14 ar  
     3     1    23 1   
     4     2    11 1   
     5     2    17 1   
     6     2    37 1   
     7     2    38 1   
     8     3     4 ar  
     9     3    12 1   
    10     4    13 1   
    11     4    16 ar  
    12     5     9 2   
    13     5    13 1   
    14     5    24 1   
    15     6     7 1   
    16     6    12 2   
    17     6    15 1   
    18     7     8 2   
    19     7    13 1   
    20     8     9 1   
    21     8    25 1   
    22     9    26 1   
    23    10    11 1   
    24    10    15 1   
    25    10    27 1   
    26    10    28 1   
    27    11    29 1   
    28    11    30 1   
    29    14    20 ar  
    30    14    31 1   
    31    15    18 1   
    32    16    20 ar  
    33    16    32 1   
    34    17    18 1   
    35    17    19 1   
    36    17    33 1   
    37    18    34 1   
    38    18    35 1   
    39    19    21 1   
    40    19    22 1   
    41    20    36 1   
@<TRIPOS>SUBSTRUCTURE
     1 ER6         1 TEMP              0 ****  ****    0 ROOT
