@<TRIPOS>MOLECULE
ER7
   31    33     1     0     0
SMALL
bcc


@<TRIPOS>ATOM
      1 N1          -2.6710     2.6520     0.0040 nc         1 ER7      -0.371300
      2 C2           3.0080    -0.7380     1.5280 ca         1 ER7      -0.104000
      3 N2          -0.4350     2.4800     0.2630 nd         1 ER7      -0.584100
      4 N3          -0.9750     1.2680     0.0800 na         1 ER7       0.031200
      5 C4           1.1170     0.0360     0.2640 ca         1 ER7      -0.040000
      6 C6          -1.1360    -1.0290    -0.1060 cc         1 ER7      -0.342900
      7 C7          -0.4970    -2.3840    -0.2300 c          1 ER7       0.597700
      8 C9          -2.5470    -0.8650    -0.2550 cc         1 ER7       0.499600
      9 N           -3.1180     0.3140    -0.2450 nd         1 ER7      -0.638000
     10 C            3.3240     0.6200    -0.4000 ca         1 ER7       0.137900
     11 O            0.2670    -2.6000    -1.1380 o          1 ER7      -0.490100
     12 C1           3.8680    -0.0880     0.6560 ca         1 ER7      -0.146000
     13 C10         -3.4290    -2.0530    -0.4620 c3         1 ER7      -0.159400
     14 C11         -2.3370     1.3780    -0.0710 cd         1 ER7       0.414500
     15 C12         -1.4930     3.2610     0.2030 cc         1 ER7       0.540200
     16 C13          1.9640     0.7050    -0.6150 ca         1 ER7      -0.109000
     17 C3           1.6350    -0.6820     1.3360 ca         1 ER7      -0.119000
     18 C5          -0.3410     0.0730     0.0620 cd         1 ER7       0.142700
     19 C8          -0.8280    -3.4170     0.8090 c3         1 ER7      -0.194100
     20 F            4.1470     1.2500    -1.2490 f          1 ER7      -0.135900
     21 H2           4.9400    -0.1260     0.7960 ha         1 ER7       0.154000
     22 H3          -3.4650    -2.6750     0.4330 hc         1 ER7       0.065033
     23 H4          -4.4410    -1.7300    -0.6910 hc         1 ER7       0.065033
     24 H5          -3.0720    -2.6780    -1.2820 hc         1 ER7       0.065033
     25 H6          -1.3960     4.3310     0.3130 h5         1 ER7       0.076800
     26 H7           1.5790     1.2640    -1.4570 ha         1 ER7       0.165000
     27 H8           0.9740    -1.1820     2.0320 ha         1 ER7       0.138000
     28 H9          -1.4020    -4.2300     0.3610 hc         1 ER7       0.066367
     29 H10          0.0990    -3.8500     1.1860 hc         1 ER7       0.066367
     30 H11         -1.3930    -3.0140     1.6470 hc         1 ER7       0.066367
     31 H1           3.4130    -1.2890     2.3650 ha         1 ER7       0.141000
@<TRIPOS>BOND
     1     1    14 2   
     2     1    15 1   
     3     2    12 ar  
     4     2    17 ar  
     5     2    31 1   
     6     3     4 1   
     7     3    15 2   
     8     4    14 1   
     9     4    18 1   
    10     5    16 ar  
    11     5    17 ar  
    12     5    18 1   
    13     6     7 1   
    14     6     8 1   
    15     6    18 2   
    16     7    11 2   
    17     7    19 1   
    18     8     9 2   
    19     8    13 1   
    20     9    14 1   
    21    10    12 ar  
    22    10    16 ar  
    23    10    20 1   
    24    12    21 1   
    25    13    22 1   
    26    13    23 1   
    27    13    24 1   
    28    15    25 1   
    29    16    26 1   
    30    17    27 1   
    31    19    28 1   
    32    19    29 1   
    33    19    30 1   
@<TRIPOS>SUBSTRUCTURE
     1 ER7         1 TEMP              0 ****  ****    0 ROOT
