@<TRIPOS>MOLECULE
ER7
   31    33     1     0     0
SMALL
No Charge or Current Charge


@<TRIPOS>ATOM
      1 N1          -2.7070     2.5570     0.0030 nc         1 ER7      -0.371300
      2 C2           3.1610    -0.8120     1.4100 ca         1 ER7      -0.086000
      3 N2          -0.3890     2.5140    -0.0400 nd         1 ER7      -0.584100
      4 N3          -0.9520     1.2740    -0.1560 na         1 ER7       0.081900
      5 C4           1.2210     0.0420     0.1670 ca         1 ER7      -0.040000
      6 C6          -1.1140    -1.0540    -0.0550 cc         1 ER7      -0.277600
      7 C7          -0.5030    -2.4180    -0.1010 c          1 ER7       0.597700
      8 C9          -2.5730    -0.8790    -0.0870 cc         1 ER7       0.434300
      9 N           -3.2140     0.2840    -0.0600 nd         1 ER7      -0.638000
     10 C            3.4720     0.9040    -0.2730 ca         1 ER7       0.173000
     11 O            0.5120    -2.6430    -0.7470 o          1 ER7      -0.490100
     12 C1           4.0110     0.0450     0.6940 ca         1 ER7      -0.128000
     13 C10         -3.5060    -2.0520    -0.2600 c3         1 ER7      -0.159400
     14 C11         -2.3160     1.3130    -0.0780 cd         1 ER7       0.414500
     15 C12         -1.5110     3.2310     0.0170 cc         1 ER7       0.540200
     16 C13          2.0930     0.9090    -0.5320 ca         1 ER7      -0.091000
     17 C3           1.7790    -0.8100     1.1510 ca         1 ER7      -0.101000
     18 C5          -0.2470     0.0620    -0.0980 cd         1 ER7       0.092000
     19 C8          -1.0860    -3.5650     0.7320 c3         1 ER7      -0.194100
     20 F            4.2870     1.7310    -0.9640 f          1 ER7      -0.171000
     21 H2           5.0810     0.0490     0.8890 ha         1 ER7       0.136000
     22 H3          -3.6680    -2.5830     0.6830 hc         1 ER7       0.065033
     23 H4          -4.4960    -1.7270    -0.6060 hc         1 ER7       0.065033
     24 H5          -3.1380    -2.7490    -1.0210 hc         1 ER7       0.065033
     25 H6          -1.5290     4.3120     0.0940 h5         1 ER7       0.076800
     26 H7           1.7090     1.5740    -1.3000 ha         1 ER7       0.147000
     27 H8           1.1390    -1.4570     1.7450 ha         1 ER7       0.120000
     28 H9          -1.7690    -4.1540     0.1130 hc         1 ER7       0.066367
     29 H10         -0.2910    -4.2400     1.0700 hc         1 ER7       0.066367
     30 H11         -1.6680    -3.1810     1.5760 hc         1 ER7       0.066367
     31 H1           3.5710    -1.4730     2.1720 ha         1 ER7       0.123000
@<TRIPOS>BOND
     1     1    14 2   
     2     1    15 1   
     3     2    12 ar  
     4     2    17 ar  
     5     2    31 1   
     6     3     4 1   
     7     3    15 2   
     8     4    14 1   
     9     4    18 1   
    10     5    16 ar  
    11     5    17 ar  
    12     5    18 1   
    13     6     7 1   
    14     6     8 1   
    15     6    18 2   
    16     7    11 2   
    17     7    19 1   
    18     8     9 2   
    19     8    13 1   
    20     9    14 1   
    21    10    12 ar  
    22    10    16 ar  
    23    10    20 1   
    24    12    21 1   
    25    13    22 1   
    26    13    23 1   
    27    13    24 1   
    28    15    25 1   
    29    16    26 1   
    30    17    27 1   
    31    19    28 1   
    32    19    29 1   
    33    19    30 1   
@<TRIPOS>SUBSTRUCTURE
     1 ER7         1 TEMP              0 ****  ****    0 ROOT
