@<TRIPOS>MOLECULE
ER8
   60    63     1     0     0
SMALL
bcc


@<TRIPOS>ATOM
      1 C1           7.3770     2.0680    -2.1970 c3         1 ER8      -0.104433
      2 C2           7.8400     1.2160    -1.0160 c3         1 ER8       0.140400
      3 C3           8.1110    -0.2230    -1.4570 c3         1 ER8      -0.104433
      4 C6           5.5770     0.8320     0.0080 c          1 ER8       0.641100
      5 C8           4.7950     1.0620     1.3050 c3         1 ER8       0.022000
      6 C10          3.4430    -1.0370     1.5810 c5         1 ER8       0.141300
      7 C11          2.0220    -1.3370     1.2320 ca         1 ER8      -0.063300
      8 C12          1.3020    -2.5130     1.3350 ca         1 ER8      -0.126000
      9 C13         -0.0200    -2.5110     0.9110 ca         1 ER8      -0.072000
     10 C14         -0.6230    -1.3530     0.4060 cp         1 ER8      -0.169500
     11 C15          0.1030    -0.1690     0.3320 ca         1 ER8      -0.011000
     12 C16          1.4240    -0.1900     0.7410 ca         1 ER8      -0.165600
     13 C19         -2.0410    -1.3490    -0.0120 cp         1 ER8       0.571800
     14 C21         -4.0720    -0.2990     0.0960 ca         1 ER8       0.919900
     15 C23         -6.1620     1.0080     0.2500 c6         1 ER8       0.246500
     16 C24         -6.8460     1.7710     1.3770 c6         1 ER8      -0.131900
     17 C25         -8.2590     2.1560     0.9640 c6         1 ER8       0.134400
     18 C27         -7.7190     2.1830    -1.3130 c6         1 ER8       0.134400
     19 C28         -6.2690     1.8060    -1.0480 c6         1 ER8      -0.131900
     20 C31         -2.6000    -2.3000    -0.8680 ca         1 ER8      -0.286200
     21 C4           9.1220     1.8090    -0.4340 c3         1 ER8      -0.104433
     22 N5           6.8480     1.2480     0.0670 ns         1 ER8      -0.577900
     23 O7           5.0410     0.3300    -0.9670 o          1 ER8      -0.592100
     24 N9           3.5430     0.3790     1.2920 n          1 ER8      -0.465800
     25 C17          2.4180     0.9030     0.7420 c          1 ER8       0.734100
     26 O18          2.2710     2.0480     0.3510 o          1 ER8      -0.608500
     27 N20         -2.7820    -0.3550     0.4500 nb         1 ER8      -0.777000
     28 N22         -4.7940     0.7090     0.6110 nu         1 ER8      -0.856900
     29 O26         -8.2820     2.8980    -0.2350 os         1 ER8      -0.402600
     30 N29         -4.6850    -1.1770    -0.7070 nb         1 ER8      -0.767000
     31 C30         -3.9420    -2.1580    -1.1790 ca         1 ER8       0.492200
     32 CL3         -1.6910    -3.5700    -1.6050 cl         1 ER8      -0.082400
     33 H34          8.1520     2.0970    -2.9640 hc         1 ER8       0.044922
     34 H33          6.4710     1.6720    -2.6530 hc         1 ER8       0.044922
     35 H35          7.1810     3.0940    -1.8800 hc         1 ER8       0.044922
     36 H38          8.8930    -0.2380    -2.2170 hc         1 ER8       0.044922
     37 H37          8.4530    -0.8260    -0.6140 hc         1 ER8       0.044922
     38 H36          7.2250    -0.6920    -1.8790 hc         1 ER8       0.044922
     39 H43          5.3800     0.7370     2.1680 h1         1 ER8       0.072200
     40 H44          4.6240     2.1340     1.4270 h1         1 ER8       0.072200
     41 H45          3.6670    -1.2440     2.6310 h1         1 ER8       0.064700
     42 H46          4.1400    -1.6200     0.9720 h1         1 ER8       0.064700
     43 H47          1.7450    -3.4160     1.7340 ha         1 ER8       0.140000
     44 H48         -0.5980    -3.4210     0.9970 ha         1 ER8       0.142000
     45 H49         -0.3500     0.7390    -0.0450 ha         1 ER8       0.164000
     46 H51         -6.6830     0.0560     0.1140 h1         1 ER8       0.079700
     47 H52         -6.8890     1.1600     2.2810 hc         1 ER8       0.058450
     48 H53         -6.2760     2.6740     1.6210 hc         1 ER8       0.058450
     49 H54         -8.8700     1.2470     0.8620 h1         1 ER8       0.047700
     50 H55         -8.7250     2.7740     1.7320 h1         1 ER8       0.047700
     51 H57         -7.7960     2.8210    -2.1950 h1         1 ER8       0.047700
     52 H56         -8.3030     1.2730    -1.5140 h1         1 ER8       0.047700
     53 H58         -5.6550     2.7090    -0.9750 hc         1 ER8       0.058450
     54 H59         -5.8880     1.2210    -1.8880 hc         1 ER8       0.058450
     55 H39          8.9710     2.8370    -0.1000 hc         1 ER8       0.044922
     56 H41          9.4790     1.2220     0.4140 hc         1 ER8       0.044922
     57 H40          9.9080     1.8160    -1.1880 hc         1 ER8       0.044922
     58 H42          7.1610     1.6250     0.9490 hn         1 ER8       0.306500
     59 H50         -4.2780     1.4030     1.1290 hn         1 ER8       0.450800
     60 H60         -4.4250    -2.8640    -1.8460 h4         1 ER8       0.034100
@<TRIPOS>BOND
     1     1     2 1   
     2     1    33 1   
     3     1    34 1   
     4     1    35 1   
     5     2     3 1   
     6     2    21 1   
     7     2    22 1   
     8     3    36 1   
     9     3    37 1   
    10     3    38 1   
    11     4     5 1   
    12     4    22 1   
    13     4    23 2   
    14     5    24 1   
    15     5    39 1   
    16     5    40 1   
    17     6     7 1   
    18     6    24 1   
    19     6    41 1   
    20     6    42 1   
    21     7     8 ar  
    22     7    12 ar  
    23     8     9 ar  
    24     8    43 1   
    25     9    10 ar  
    26     9    44 1   
    27    10    11 ar  
    28    10    13 1   
    29    11    12 ar  
    30    11    45 1   
    31    12    25 1   
    32    13    20 ar  
    33    13    27 ar  
    34    14    27 ar  
    35    14    28 1   
    36    14    30 ar  
    37    15    16 1   
    38    15    19 1   
    39    15    28 1   
    40    15    46 1   
    41    16    17 1   
    42    16    47 1   
    43    16    48 1   
    44    17    29 1   
    45    17    49 1   
    46    17    50 1   
    47    18    19 1   
    48    18    29 1   
    49    18    51 1   
    50    18    52 1   
    51    19    53 1   
    52    19    54 1   
    53    20    31 ar  
    54    20    32 1   
    55    21    55 1   
    56    21    56 1   
    57    21    57 1   
    58    22    58 1   
    59    24    25 1   
    60    25    26 2   
    61    28    59 1   
    62    30    31 ar  
    63    31    60 1   
@<TRIPOS>SUBSTRUCTURE
     1 ER8         1 TEMP              0 ****  ****    0 ROOT
