@<TRIPOS>MOLECULE
ER8
   60    63     1     0     0
SMALL
No Charge or Current Charge


@<TRIPOS>ATOM
      1 C1           7.2330     2.3430    -2.2170 c3         1 ER8      -0.104433
      2 C2           7.8780     1.5910    -1.0250 c3         1 ER8       0.140400
      3 C3           8.4990     0.2530    -1.4970 c3         1 ER8      -0.104433
      4 C6           5.7170     0.6190    -0.0540 c          1 ER8       0.574100
      5 C8           4.9060     0.5770     1.2590 c3         1 ER8       0.022000
      6 C10          3.4330    -1.5970     1.5920 c5         1 ER8       0.141300
      7 C11          1.9580    -1.7670     1.2510 ca         1 ER8      -0.063300
      8 C12          1.1620    -2.9080     1.4140 ca         1 ER8      -0.108000
      9 C13         -0.1940    -2.8530     1.0320 ca         1 ER8      -0.054000
     10 C14         -0.7660    -1.6690     0.4790 cp         1 ER8      -0.169500
     11 C15          0.0670    -0.5240     0.3410 ca         1 ER8       0.007000
     12 C16          1.4100    -0.6100     0.7290 ca         1 ER8      -0.165600
     13 C19         -2.2100    -1.6070     0.0850 cp         1 ER8       0.243500
     14 C21         -4.1800    -0.4140     0.1460 ca         1 ER8       0.393900
     15 C23         -6.1920     1.1500     0.2600 c6         1 ER8       0.246500
     16 C24         -6.6720     2.1910     1.2980 c6         1 ER8      -0.131900
     17 C25         -8.0600     2.7400     0.8980 c6         1 ER8       0.157600
     18 C27         -7.6460     2.3260    -1.4530 c6         1 ER8       0.157600
     19 C28         -6.2400     1.7540    -1.1640 c6         1 ER8      -0.131900
     20 C31         -2.8730    -2.6100    -0.6770 ca         1 ER8      -0.064000
     21 C4           8.9900     2.4760    -0.4150 c3         1 ER8      -0.104433
     22 N5           6.8870     1.3560     0.0350 ns         1 ER8      -0.510900
     23 O7           5.3610     0.0480    -1.0770 o          1 ER8      -0.592100
     24 N9           3.6220    -0.1680     1.1910 n          1 ER8      -0.398800
     25 C17          2.4580     0.4230     0.6760 c          1 ER8       0.591600
     26 O18          2.3430     1.5710     0.2710 o          1 ER8      -0.533000
     27 N20         -2.8830    -0.5050     0.4760 nb         1 ER8      -0.251000
     28 N22         -4.8200     0.7350     0.5900 nu         1 ER8      -0.912100
     29 O26         -8.0000     3.2880    -0.4370 os         1 ER8      -0.449000
     30 N29         -4.8960    -1.3150    -0.5530 nb         1 ER8      -0.241000
     31 C30         -4.2340    -2.4120    -0.9680 ca         1 ER8       0.163900
     32 Cl3         -2.0630    -4.0420    -1.3200 cl         1 ER8      -0.174000
     33 H34          7.9910     2.6090    -2.9630 hc         1 ER8       0.044922
     34 H33          6.4770     1.7300    -2.7210 hc         1 ER8       0.044922
     35 H35          6.7510     3.2680    -1.8790 hc         1 ER8       0.044922
     36 H38          9.3100     0.4340    -2.2140 hc         1 ER8       0.044922
     37 H37          8.9160    -0.3040    -0.6490 hc         1 ER8       0.044922
     38 H36          7.7590    -0.3850    -1.9930 hc         1 ER8       0.044922
     39 H43          5.5440     0.1220     2.0270 h1         1 ER8       0.072200
     40 H44          4.7090     1.6120     1.5650 h1         1 ER8       0.072200
     41 H45          3.6240    -1.7520     2.6620 h1         1 ER8       0.064700
     42 H46          4.0670    -2.2750     1.0050 h1         1 ER8       0.064700
     43 H47          1.5810    -3.8210     1.8330 ha         1 ER8       0.122000
     44 H48         -0.8140    -3.7340     1.1810 ha         1 ER8       0.124000
     45 H49         -0.3250     0.4070    -0.0670 ha         1 ER8       0.146000
     46 H51         -6.8780     0.2890     0.3080 h1         1 ER8       0.079700
     47 H52         -6.7270     1.7350     2.2960 hc         1 ER8       0.058450
     48 H53         -5.9590     3.0240     1.3650 hc         1 ER8       0.058450
     49 H54         -8.8150     1.9400     0.9300 h1         1 ER8       0.047700
     50 H55         -8.3690     3.5300     1.5970 h1         1 ER8       0.047700
     51 H57         -7.6570     2.8210    -2.4350 h1         1 ER8       0.047700
     52 H56         -8.3940     1.5190    -1.4680 h1         1 ER8       0.047700
     53 H58         -5.4930     2.5530    -1.2640 hc         1 ER8       0.058450
     54 H59         -5.9910     0.9910    -1.9130 hc         1 ER8       0.058450
     55 H39          8.5830     3.4320    -0.0640 hc         1 ER8       0.044922
     56 H41          9.4660     1.9750     0.4370 hc         1 ER8       0.044922
     57 H40          9.7690     2.6930    -1.1560 hc         1 ER8       0.044922
     58 H42          7.0710     1.7780     0.9370 hn         1 ER8       0.306500
     59 H50         -4.2290     1.3820     1.1120 hn         1 ER8       0.506000
     60 H60         -4.8010    -3.1360    -1.5510 h4         1 ER8       0.034100
@<TRIPOS>BOND
     1     1     2 1   
     2     1    33 1   
     3     1    34 1   
     4     1    35 1   
     5     2     3 1   
     6     2    21 1   
     7     2    22 1   
     8     3    36 1   
     9     3    37 1   
    10     3    38 1   
    11     4     5 1   
    12     4    22 1   
    13     4    23 2   
    14     5    24 1   
    15     5    39 1   
    16     5    40 1   
    17     6     7 1   
    18     6    24 1   
    19     6    41 1   
    20     6    42 1   
    21     7     8 ar  
    22     7    12 ar  
    23     8     9 ar  
    24     8    43 1   
    25     9    10 ar  
    26     9    44 1   
    27    10    11 ar  
    28    10    13 1   
    29    11    12 ar  
    30    11    45 1   
    31    12    25 1   
    32    13    20 ar  
    33    13    27 ar  
    34    14    27 ar  
    35    14    28 1   
    36    14    30 ar  
    37    15    16 1   
    38    15    19 1   
    39    15    28 1   
    40    15    46 1   
    41    16    17 1   
    42    16    47 1   
    43    16    48 1   
    44    17    29 1   
    45    17    49 1   
    46    17    50 1   
    47    18    19 1   
    48    18    29 1   
    49    18    51 1   
    50    18    52 1   
    51    19    53 1   
    52    19    54 1   
    53    20    31 ar  
    54    20    32 1   
    55    21    55 1   
    56    21    56 1   
    57    21    57 1   
    58    22    58 1   
    59    24    25 1   
    60    25    26 2   
    61    28    59 1   
    62    30    31 ar  
    63    31    60 1   
@<TRIPOS>SUBSTRUCTURE
     1 ER8         1 TEMP              0 ****  ****    0 ROOT
