@<TRIPOS>MOLECULE
ER9
   30    32     1     0     0
SMALL
No Charge or Current Charge


@<TRIPOS>ATOM
      1 C4          11.8760   -17.8840    16.3320 cc         1 ER9       0.355000
      2 C5          11.3970   -17.5150    14.9440 c          1 ER9       0.543600
      3 C6          12.8020   -19.3320    13.8060 ca         1 ER9      -0.121000
      4 C11         12.4950   -20.5940    13.2650 ca         1 ER9      -0.105000
      5 C7          14.1210   -19.0440    14.2010 ca         1 ER9      -0.148000
      6 C8          15.1140   -20.0290    14.1000 ca         1 ER9      -0.134000
      7 C9          14.8010   -21.2980    13.5860 ca         1 ER9      -0.085000
      8 C10         13.4870   -21.5980    13.1540 ca         1 ER9      -0.128600
      9 C12         13.1510   -22.9680    12.5820 c          1 ER9       0.712600
     10 N1          14.3650   -20.6580    20.6070 nc         1 ER9      -0.358000
     11 N2          14.6550   -21.4320    19.4930 nc         1 ER9      -0.358000
     12 C3          12.7370   -18.8390    18.0810 cc         1 ER9       0.476000
     13 N3          13.4440   -19.7260    18.8580 na         1 ER9      -0.381500
     14 C1          13.6310   -19.6260    20.2100 cd         1 ER9       0.405900
     15 C2          14.0910   -20.8560    18.4370 cd         1 ER9       0.405900
     16 N4          12.5980   -18.9910    16.7490 na         1 ER9      -0.470000
     17 N5          11.6060   -17.1540    17.4250 nd         1 ER9      -0.315000
     18 N6          12.1640   -17.7550    18.5350 nd         1 ER9      -0.373000
     19 N7          11.7850   -18.3490    13.8970 ns         1 ER9      -0.147000
     20 O1          10.6680   -16.5510    14.7110 o          1 ER9      -0.570100
     21 O2          12.0020   -23.1870    12.2230 o          1 ER9      -0.706500
     22 O3          14.0410   -23.8040    12.5030 o          1 ER9      -0.706500
     23 H1          11.4770   -20.7990    12.9410 ha         1 ER9       0.138000
     24 H2          14.3800   -18.0590    14.5870 ha         1 ER9       0.107000
     25 H3          16.1320   -19.8080    14.4150 ha         1 ER9       0.101000
     26 H4          15.5880   -22.0470    13.5140 ha         1 ER9       0.138000
     27 H5          13.2310   -18.8230    20.8190 h5         1 ER9       0.082100
     28 H6          14.1200   -21.1940    17.4080 h5         1 ER9       0.082100
     29 H7          12.9570   -19.7310    16.1650 hn         1 ER9       0.396000
     30 H8          11.3280   -18.1450    13.0170 hn         1 ER9       0.167000
@<TRIPOS>BOND
     1     1     2 1   
     2     1    16 1   
     3     1    17 2   
     4     2    19 1   
     5     2    20 2   
     6     3     4 ar  
     7     3     5 ar  
     8     3    19 1   
     9     4     8 ar  
    10     4    23 1   
    11     5     6 ar  
    12     5    24 1   
    13     6     7 ar  
    14     6    25 1   
    15     7     8 ar  
    16     7    26 1   
    17     8     9 1   
    18     9    21 1   
    19     9    22 1   
    20    10    11 1   
    21    10    14 2   
    22    11    15 2   
    23    12    13 1   
    24    12    16 1   
    25    12    18 2   
    26    13    14 1   
    27    13    15 1   
    28    14    27 1   
    29    15    28 1   
    30    16    29 1   
    31    17    18 1   
    32    19    30 1   
@<TRIPOS>SUBSTRUCTURE
     1 ER9         1 TEMP              0 ****  ****    0 ROOT
