@<TRIPOS>MOLECULE
ER9
   30    32     1     0     0
SMALL
abcg2


@<TRIPOS>ATOM
      1 C4          12.0950   -17.9160    16.2410 cc         1 ER9       0.355000
      2 C5          11.3870   -17.6090    14.9630 c          1 ER9       0.543600
      3 C6          12.7770   -19.2690    13.7710 ca         1 ER9      -0.121000
      4 C11         12.5320   -20.5800    13.3870 ca         1 ER9      -0.105000
      5 C7          14.0780   -18.8400    14.0140 ca         1 ER9      -0.148000
      6 C8          15.1200   -19.7480    13.9040 ca         1 ER9      -0.134000
      7 C9          14.8720   -21.0600    13.5270 ca         1 ER9      -0.085000
      8 C10         13.5760   -21.4900    13.2550 ca         1 ER9      -0.128600
      9 C12         13.2920   -22.9340    12.8380 c          1 ER9       0.712600
     10 N1          13.9500   -20.8270    20.6770 nc         1 ER9      -0.358000
     11 N2          14.2770   -21.6620    19.6510 nc         1 ER9      -0.358000
     12 C3          12.9590   -18.8890    17.9280 cc         1 ER9       0.476000
     13 N3          13.4040   -19.8580    18.8090 na         1 ER9      -0.381500
     14 C1          13.4340   -19.7550    20.1690 cd         1 ER9       0.405900
     15 C2          13.9520   -21.0780    18.5430 cd         1 ER9       0.405900
     16 N4          12.3890   -19.1440    16.7390 na         1 ER9      -0.470000
     17 N5          12.4520   -16.9990    17.0930 nd         1 ER9      -0.315000
     18 N6          13.0160   -17.6100    18.1540 nd         1 ER9      -0.373000
     19 N7          11.6880   -18.3720    13.8960 ns         1 ER9      -0.147000
     20 O1          10.5660   -16.7140    14.9460 o          1 ER9      -0.570100
     21 O2          12.1030   -23.2130    12.5960 o          1 ER9      -0.706500
     22 O3          14.2750   -23.6950    12.7830 o          1 ER9      -0.706500
     23 H1          11.5150   -20.8990    13.1980 ha         1 ER9       0.138000
     24 H2          14.2730   -17.8090    14.2830 ha         1 ER9       0.107000
     25 H3          16.1340   -19.4220    14.1010 ha         1 ER9       0.101000
     26 H4          15.6920   -21.7600    13.4380 ha         1 ER9       0.138000
     27 H5          13.0630   -18.8970    20.7060 h5         1 ER9       0.082100
     28 H6          14.0890   -21.4680    17.5460 h5         1 ER9       0.082100
     29 H7          12.1840   -20.0460    16.3280 hn         1 ER9       0.396000
     30 H8          11.1020   -18.2340    13.0820 hn         1 ER9       0.167000
@<TRIPOS>BOND
     1     1     2 1   
     2     1    16 1   
     3     1    17 2   
     4     2    19 1   
     5     2    20 2   
     6     3     4 ar  
     7     3     5 ar  
     8     3    19 1   
     9     4     8 ar  
    10     4    23 1   
    11     5     6 ar  
    12     5    24 1   
    13     6     7 ar  
    14     6    25 1   
    15     7     8 ar  
    16     7    26 1   
    17     8     9 1   
    18     9    21 1   
    19     9    22 1   
    20    10    11 1   
    21    10    14 2   
    22    11    15 2   
    23    12    13 1   
    24    12    16 1   
    25    12    18 2   
    26    13    14 1   
    27    13    15 1   
    28    14    27 1   
    29    15    28 1   
    30    16    29 1   
    31    17    18 1   
    32    19    30 1   
@<TRIPOS>SUBSTRUCTURE
     1 ER9         1 TEMP              0 ****  ****    0 ROOT
