@<TRIPOS>MOLECULE
ERA
  120   119     1     0     0
SMALL
abcg2


@<TRIPOS>ATOM
      1 OA           5.7730     9.4010     0.5970 oh         1 ERA      -0.660000
      2 NB           4.5210     6.9350     0.5000 ns         1 ERA      -0.509900
      3 CAA          6.5140     8.2810     0.1690 c3         1 ERA       0.153600
      4 CAB          5.9410     7.0030     0.7690 c3         1 ERA       0.076700
      5 CAC          6.2600     6.8100     2.2630 c3         1 ERA       0.201500
      6 OAD          5.7850     7.8660     3.0720 oh         1 ERA      -0.640000
      7 CAE          5.7580     5.4840     2.7530 c2         1 ERA      -0.257200
      8 CAF          6.5320     4.4450     3.0420 c2         1 ERA      -0.185200
      9 CAG          6.0210     3.1010     3.4510 c3         1 ERA      -0.043200
     10 CAH          6.1440     2.0740     2.3250 c3         1 ERA      -0.076400
     11 CAI          5.6550     0.6910     2.7360 c3         1 ERA      -0.073400
     12 CAJ          5.7480    -0.3420     1.6210 c3         1 ERA      -0.074400
     13 CAK          5.2610    -1.7220     2.0450 c3         1 ERA      -0.074400
     14 CAL          5.3420    -2.7640     0.9350 c3         1 ERA      -0.074400
     15 CAM          4.8540    -4.1400     1.3690 c3         1 ERA      -0.074400
     16 CAN          4.9290    -5.1870     0.2650 c3         1 ERA      -0.074400
     17 CAO          4.4400    -6.5610     0.7050 c3         1 ERA      -0.074400
     18 CAP          4.5110    -7.6110    -0.3960 c3         1 ERA      -0.074400
     19 OBA          4.4730     4.8170    -0.2950 o          1 ERA      -0.605100
     20 CBC          2.4060     6.0240    -0.2330 c3         1 ERA      -0.157400
     21 CBD          1.9490     5.5220    -1.5980 c3         1 ERA      -0.067400
     22 CBE          0.4360     5.5850    -1.7630 c3         1 ERA      -0.076400
     23 CBF         -0.0220     5.1080    -3.1360 c3         1 ERA      -0.072400
     24 CBG         -1.5440     5.1090    -3.2970 c3         1 ERA      -0.042200
     25 CBH         -1.9570     4.7190    -4.6830 c2         1 ERA      -0.218200
     26 CBI         -2.4050     3.5310    -5.0860 c2         1 ERA      -0.212200
     27 CBJ         -2.6470     2.3130    -4.2510 c3         1 ERA      -0.044200
     28 CBK         -4.0880     1.8130    -4.3620 c3         1 ERA      -0.072400
     29 CBL         -4.3410     0.5460    -3.5550 c3         1 ERA      -0.075400
     30 CBM         -5.7640     0.0210    -3.7010 c3         1 ERA      -0.075400
     31 CBN         -6.0230    -1.2420    -2.8910 c3         1 ERA      -0.072400
     32 CBO         -7.4440    -1.7780    -3.0710 c3         1 ERA      -0.043200
     33 CBP         -7.6740    -3.0570    -2.3360 c2         1 ERA      -0.206200
     34 CBQ         -8.5970    -3.2450    -1.3870 ce         1 ERA      -0.185000
     35 CBR         -8.7960    -4.5020    -0.6850 ce         1 ERA      -0.185000
     36 CBS         -9.7260    -4.6990     0.2550 c2         1 ERA      -0.205200
     37 CBU         -9.6600    -5.8470     2.4930 c3         1 ERA      -0.072400
     38 CBV         -9.9420    -7.1330     3.2590 c3         1 ERA      -0.076400
     39 CBT         -9.9360    -5.9790     0.9940 c3         1 ERA      -0.043200
     40 HOA          5.9270    10.1170    -0.0260 ho         1 ERA       0.446000
     41 HNB          3.9920     7.7850     0.6150 hn         1 ERA       0.322500
     42 HAA          6.4800     8.1810    -0.9220 h1         1 ERA       0.030200
     43 HAAA         7.5720     8.3600     0.4500 h1         1 ERA       0.030200
     44 HAB          6.4180     6.1710     0.2470 h1         1 ERA       0.087700
     45 HAC          7.3510     6.8310     2.3560 h1         1 ERA       0.073700
     46 HOAD         4.8250     7.9020     2.9980 ho         1 ERA       0.441000
     47 HAE          4.6780     5.3810     2.8510 ha         1 ERA       0.171000
     48 HAF          7.6110     4.5430     2.9340 ha         1 ERA       0.165000
     49 HAG          6.5740     2.7420     4.3260 hc         1 ERA       0.043200
     50 HAGA         4.9730     3.1800     3.7540 hc         1 ERA       0.043200
     51 HAH          5.5740     2.4300     1.4600 hc         1 ERA       0.047700
     52 HAHA         7.1880     2.0100     1.9990 hc         1 ERA       0.047700
     53 HAI          6.2340     0.3460     3.6010 hc         1 ERA       0.034700
     54 HAIA         4.6170     0.7620     3.0780 hc         1 ERA       0.034700
     55 HAJ          5.1660    -0.0000     0.7580 hc         1 ERA       0.039200
     56 HAJA         6.7860    -0.4130     1.2760 hc         1 ERA       0.039200
     57 HAK          5.8460    -2.0640     2.9060 hc         1 ERA       0.036200
     58 HAKA         4.2260    -1.6480     2.3950 hc         1 ERA       0.036200
     59 HAL          4.7550    -2.4250     0.0750 hc         1 ERA       0.037200
     60 HALA         6.3770    -2.8390     0.5830 hc         1 ERA       0.037200
     61 HAM          5.4430    -4.4780     2.2300 hc         1 ERA       0.036700
     62 HAMA         3.8210    -4.0620     1.7240 hc         1 ERA       0.036700
     63 HAN          4.3390    -4.8500    -0.5960 hc         1 ERA       0.036700
     64 HANA         5.9620    -5.2660    -0.0910 hc         1 ERA       0.036700
     65 HAO          5.0300    -6.8970     1.5650 hc         1 ERA       0.036700
     66 HAOA         3.4070    -6.4800     1.0620 hc         1 ERA       0.036700
     67 HAP          3.9210    -7.2760    -1.2570 hc         1 ERA       0.036700
     68 HAPA         5.5440    -7.6930    -0.7530 hc         1 ERA       0.036700
     69 HBC          1.9050     5.4480     0.5530 hc         1 ERA       0.056200
     70 HBCA         2.0990     7.0630    -0.0930 hc         1 ERA       0.056200
     71 HBD          2.4270     6.1150    -2.3840 hc         1 ERA       0.053200
     72 HBDA         2.2860     4.4920    -1.7400 hc         1 ERA       0.053200
     73 HBE         -0.0380     4.9750    -0.9870 hc         1 ERA       0.036700
     74 HBEA         0.0880     6.6110    -1.6000 hc         1 ERA       0.036700
     75 HBF          0.4280     5.7390    -3.9090 hc         1 ERA       0.042200
     76 HBFA         0.3500     4.0950    -3.3160 hc         1 ERA       0.042200
     77 HBG         -1.9850     4.4460    -2.5490 hc         1 ERA       0.043200
     78 HBGA        -1.9230     6.1130    -3.0790 hc         1 ERA       0.043200
     79 HBH         -1.8340     5.4910    -5.4380 ha         1 ERA       0.165000
     80 HBI         -2.6330     3.4130    -6.1430 ha         1 ERA       0.165000
     81 HBJ         -1.9750     1.5140    -4.5870 hc         1 ERA       0.045200
     82 HBJA        -2.4000     2.4960    -3.2020 hc         1 ERA       0.045200
     83 HBK         -4.7700     2.6020    -4.0300 hc         1 ERA       0.039200
     84 HBKA        -4.3250     1.6280    -5.4150 hc         1 ERA       0.039200
     85 HBL         -3.6350    -0.2320    -3.8690 hc         1 ERA       0.038200
     86 HBLA        -4.1290     0.7380    -2.4980 hc         1 ERA       0.038200
     87 HBM         -6.4720     0.8000    -3.3980 hc         1 ERA       0.037200
     88 HBMA        -5.9690    -0.1780    -4.7590 hc         1 ERA       0.037200
     89 HBN         -5.3060    -2.0170    -3.1830 hc         1 ERA       0.040700
     90 HBNA        -5.8420    -1.0440    -1.8300 hc         1 ERA       0.040700
     91 HBO         -8.1690    -1.0240    -2.7510 hc         1 ERA       0.044700
     92 HBOA        -7.6180    -1.9410    -4.1410 hc         1 ERA       0.044700
     93 HBP         -7.0210    -3.8860    -2.6010 ha         1 ERA       0.167000
     94 HBQ         -9.2540    -2.4210    -1.1150 ha         1 ERA       0.168000
     95 HBR         -8.1380    -5.3240    -0.9580 ha         1 ERA       0.168000
     96 HBS        -10.3790    -3.8720     0.5280 ha         1 ERA       0.167000
     97 HBU        -10.2670    -5.0340     2.9060 hc         1 ERA       0.040200
     98 HBUA        -8.6160    -5.5510     2.6400 hc         1 ERA       0.040200
     99 HBV        -10.9900    -7.4190     3.1130 hc         1 ERA       0.037200
    100 HBVA        -9.3450    -7.9480     2.8340 hc         1 ERA       0.037200
    101 CBW         -9.6540    -7.0210     4.7500 c3         1 ERA      -0.074400
    102 HBT        -10.9720    -6.3100     0.8600 hc         1 ERA       0.044700
    103 HBTA        -9.3010    -6.7640     0.5730 hc         1 ERA       0.044700
    104 CBX         -9.9450    -8.3090     5.5060 c3         1 ERA      -0.088100
    105 CAQ          4.0210    -8.9830     0.0490 c3         1 ERA      -0.075400
    106 CAR          4.0910   -10.0370    -1.0500 c3         1 ERA      -0.074400
    107 CAS          3.5970   -11.4030    -0.5930 c3         1 ERA      -0.088100
    108 HBX        -10.9960    -8.5910     5.4150 hc         1 ERA       0.031367
    109 HBX1        -9.3490    -9.1370     5.1170 hc         1 ERA       0.031367
    110 HBX2        -9.7210    -8.2120     6.5690 hc         1 ERA       0.031367
    111 HAQ          4.6100    -9.3180     0.9100 hc         1 ERA       0.036700
    112 HAQA         2.9880    -8.9010     0.4050 hc         1 ERA       0.036700
    113 HAR          3.5020    -9.7030    -1.9100 hc         1 ERA       0.036700
    114 HARA         5.1220   -10.1210    -1.4050 hc         1 ERA       0.036700
    115 HAS          4.1860   -11.7730     0.2480 hc         1 ERA       0.031367
    116 HAS1         2.5550   -11.3590    -0.2700 hc         1 ERA       0.031367
    117 HAS2         3.6640   -12.1420    -1.3920 hc         1 ERA       0.031367
    118 HBW         -8.6060    -6.7390     4.8950 hc         1 ERA       0.037200
    119 HBWA       -10.2470    -6.2040     5.1730 hc         1 ERA       0.037200
    120 CBB          3.8960     5.8610    -0.0220 c          1 ERA       0.599100
@<TRIPOS>BOND
     1     1     3 1   
     2     1    40 1   
     3     2     4 1   
     4     2    41 1   
     5     2   120 1   
     6     3     4 1   
     7     3    42 1   
     8     3    43 1   
     9     4     5 1   
    10     4    44 1   
    11     5     6 1   
    12     5     7 1   
    13     5    45 1   
    14     6    46 1   
    15     7     8 2   
    16     7    47 1   
    17     8     9 1   
    18     8    48 1   
    19     9    10 1   
    20     9    49 1   
    21     9    50 1   
    22    10    11 1   
    23    10    51 1   
    24    10    52 1   
    25    11    12 1   
    26    11    53 1   
    27    11    54 1   
    28    12    13 1   
    29    12    55 1   
    30    12    56 1   
    31    13    14 1   
    32    13    57 1   
    33    13    58 1   
    34    14    15 1   
    35    14    59 1   
    36    14    60 1   
    37    15    16 1   
    38    15    61 1   
    39    15    62 1   
    40    16    17 1   
    41    16    63 1   
    42    16    64 1   
    43    17    18 1   
    44    17    65 1   
    45    17    66 1   
    46    18    67 1   
    47    18    68 1   
    48    18   105 1   
    49    19   120 2   
    50    20    21 1   
    51    20    69 1   
    52    20    70 1   
    53    20   120 1   
    54    21    22 1   
    55    21    71 1   
    56    21    72 1   
    57    22    23 1   
    58    22    73 1   
    59    22    74 1   
    60    23    24 1   
    61    23    75 1   
    62    23    76 1   
    63    24    25 1   
    64    24    77 1   
    65    24    78 1   
    66    25    26 2   
    67    25    79 1   
    68    26    27 1   
    69    26    80 1   
    70    27    28 1   
    71    27    81 1   
    72    27    82 1   
    73    28    29 1   
    74    28    83 1   
    75    28    84 1   
    76    29    30 1   
    77    29    85 1   
    78    29    86 1   
    79    30    31 1   
    80    30    87 1   
    81    30    88 1   
    82    31    32 1   
    83    31    89 1   
    84    31    90 1   
    85    32    33 1   
    86    32    91 1   
    87    32    92 1   
    88    33    34 2   
    89    33    93 1   
    90    34    35 1   
    91    34    94 1   
    92    35    36 2   
    93    35    95 1   
    94    36    39 1   
    95    36    96 1   
    96    37    38 1   
    97    37    39 1   
    98    37    97 1   
    99    37    98 1   
   100    38    99 1   
   101    38   100 1   
   102    38   101 1   
   103    39   102 1   
   104    39   103 1   
   105   101   104 1   
   106   101   118 1   
   107   101   119 1   
   108   104   108 1   
   109   104   109 1   
   110   104   110 1   
   111   105   106 1   
   112   105   111 1   
   113   105   112 1   
   114   106   107 1   
   115   106   113 1   
   116   106   114 1   
   117   107   115 1   
   118   107   116 1   
   119   107   117 1   
@<TRIPOS>SUBSTRUCTURE
     1 ERA         1 TEMP              0 ****  ****    0 ROOT
