@<TRIPOS>MOLECULE
ERA
  120   119     1     0     0
SMALL
No Charge or Current Charge


@<TRIPOS>ATOM
      1 OA           5.7750     9.0990    -0.4660 oh         1 ERA      -0.660000
      2 NB           4.6970     6.3630    -0.1040 ns         1 ERA      -0.509900
      3 CAA          6.4120     7.9320    -1.0210 c3         1 ERA       0.153600
      4 CAB          6.1400     6.6770    -0.1450 c3         1 ERA       0.076700
      5 CAC          6.7480     6.7930     1.2850 c3         1 ERA       0.201500
      6 OAD          6.1340     7.8800     1.9820 oh         1 ERA      -0.640000
      7 CAE          6.5670     5.5270     2.0960 c2         1 ERA      -0.257200
      8 CAF          7.2810     4.4000     1.9430 c2         1 ERA      -0.185200
      9 CAG          7.0680     3.1210     2.7230 c3         1 ERA      -0.043200
     10 CAH          6.4940     1.9960     1.8360 c3         1 ERA      -0.076400
     11 CAI          6.2600     0.6760     2.6030 c3         1 ERA      -0.073400
     12 CAJ          5.6780    -0.4440     1.7130 c3         1 ERA      -0.074400
     13 CAK          5.4440    -1.7650     2.4790 c3         1 ERA      -0.074400
     14 CAL          4.8600    -2.8850     1.5910 c3         1 ERA      -0.074400
     15 CAM          4.6260    -4.2040     2.3580 c3         1 ERA      -0.074400
     16 CAN          4.0390    -5.3250     1.4710 c3         1 ERA      -0.074400
     17 CAO          3.8070    -6.6440     2.2390 c3         1 ERA      -0.074400
     18 CAP          3.2170    -7.7640     1.3530 c3         1 ERA      -0.074400
     19 OBA          4.7500     4.3760    -1.2220 o          1 ERA      -0.605100
     20 CBC          2.5960     5.1390    -0.4250 c3         1 ERA      -0.157400
     21 CBD          1.8210     5.4190    -1.7340 c3         1 ERA      -0.067400
     22 CBE          0.2880     5.3820    -1.5520 c3         1 ERA      -0.076400
     23 CBF         -0.4800     5.6580    -2.8640 c3         1 ERA      -0.072400
     24 CBG         -2.0120     5.6630    -2.6850 c3         1 ERA      -0.042200
     25 CBH         -2.7330     5.9460    -3.9900 c2         1 ERA      -0.218200
     26 CBI         -3.3570     5.0580    -4.7840 c2         1 ERA      -0.212200
     27 CBJ         -3.4590     3.5580    -4.5770 c3         1 ERA      -0.044200
     28 CBK         -4.8050     3.1560    -3.9400 c3         1 ERA      -0.072400
     29 CBL         -4.9460     1.6330    -3.7180 c3         1 ERA      -0.075400
     30 CBM         -6.3050     1.2390    -3.0980 c3         1 ERA      -0.075400
     31 CBN         -6.4520    -0.2820    -2.8730 c3         1 ERA      -0.072400
     32 CBO         -7.8190    -0.6750    -2.2720 c3         1 ERA      -0.043200
     33 CBP         -7.9490    -2.1670    -2.0350 c2         1 ERA      -0.206200
     34 CBQ         -8.5850    -2.7390    -0.9920 ce         1 ERA      -0.185000
     35 CBR         -8.6900    -4.1900    -0.8100 ce         1 ERA      -0.185000
     36 CBS         -9.3340    -4.7610     0.2300 c2         1 ERA      -0.205200
     37 CBU         -8.2550    -6.8420     1.2050 c3         1 ERA      -0.072400
     38 CBV         -8.3780    -8.3600     1.4600 c3         1 ERA      -0.076400
     39 CBT         -9.4730    -6.2500     0.4650 c3         1 ERA      -0.043200
     40 HOA          5.8510     9.8140    -1.1380 ho         1 ERA       0.446000
     41 HNB          4.0830     7.0190     0.3640 hn         1 ERA       0.322500
     42 HAA          6.0360     7.7420    -2.0350 h1         1 ERA       0.030200
     43 HAAA         7.4960     8.0900    -1.0950 h1         1 ERA       0.030200
     44 HAB          6.6590     5.8420    -0.6340 h1         1 ERA       0.087700
     45 HAC          7.8260     6.9870     1.1760 h1         1 ERA       0.073700
     46 HOAD         5.9260     8.5360     1.2690 ho         1 ERA       0.441000
     47 HAE          5.7620     5.5730     2.8300 ha         1 ERA       0.171000
     48 HAF          8.0810     4.3470     1.2000 ha         1 ERA       0.165000
     49 HAG          8.0180     2.7910     3.1620 hc         1 ERA       0.043200
     50 HAGA         6.3820     3.2970     3.5610 hc         1 ERA       0.043200
     51 HAH          5.5460     2.3350     1.4000 hc         1 ERA       0.047700
     52 HAHA         7.1810     1.8120     1.0010 hc         1 ERA       0.047700
     53 HAI          7.2100     0.3370     3.0340 hc         1 ERA       0.034700
     54 HAIA         5.5750     0.8630     3.4400 hc         1 ERA       0.034700
     55 HAJ          4.7280    -0.1050     1.2810 hc         1 ERA       0.039200
     56 HAJA         6.3620    -0.6310     0.8750 hc         1 ERA       0.039200
     57 HAK          6.3950    -2.1050     2.9090 hc         1 ERA       0.036200
     58 HAKA         4.7620    -1.5770     3.3180 hc         1 ERA       0.036200
     59 HAL          3.9090    -2.5450     1.1610 hc         1 ERA       0.037200
     60 HALA         5.5420    -3.0720     0.7520 hc         1 ERA       0.037200
     61 HAM          5.5770    -4.5450     2.7870 hc         1 ERA       0.036700
     62 HAMA         3.9450    -4.0170     3.1980 hc         1 ERA       0.036700
     63 HAN          3.0880    -4.9840     1.0440 hc         1 ERA       0.036700
     64 HANA         4.7190    -5.5120     0.6310 hc         1 ERA       0.036700
     65 HAO          4.7580    -6.9860     2.6650 hc         1 ERA       0.036700
     66 HAOA         3.1280    -6.4570     3.0810 hc         1 ERA       0.036700
     67 HAP          2.2650    -7.4230     0.9270 hc         1 ERA       0.036700
     68 HAPA         3.8960    -7.9520     0.5110 hc         1 ERA       0.036700
     69 HBC          2.3550     4.1250    -0.0870 hc         1 ERA       0.056200
     70 HBCA         2.2770     5.8670     0.3310 hc         1 ERA       0.056200
     71 HBD          2.1130     6.4040    -2.1200 hc         1 ERA       0.053200
     72 HBDA         2.1140     4.6800    -2.4920 hc         1 ERA       0.053200
     73 HBE         -0.0070     4.3990    -1.1610 hc         1 ERA       0.036700
     74 HBEA        -0.0030     6.1260    -0.8000 hc         1 ERA       0.036700
     75 HBF         -0.1650     6.6280    -3.2690 hc         1 ERA       0.042200
     76 HBFA        -0.2100     4.8980    -3.6070 hc         1 ERA       0.042200
     77 HBG         -2.3270     4.7020    -2.2600 hc         1 ERA       0.043200
     78 HBGA        -2.2860     6.4230    -1.9430 hc         1 ERA       0.043200
     79 HBH         -2.7320     7.0030    -4.2670 ha         1 ERA       0.165000
     80 HBI         -3.8460     5.4060    -5.6960 ha         1 ERA       0.165000
     81 HBJ         -3.3480     3.0460    -5.5420 hc         1 ERA       0.045200
     82 HBJA        -2.6400     3.1920    -3.9480 hc         1 ERA       0.045200
     83 HBK         -4.9120     3.6720    -2.9770 hc         1 ERA       0.039200
     84 HBKA        -5.6230     3.5050    -4.5820 hc         1 ERA       0.039200
     85 HBL         -4.8250     1.1170    -4.6790 hc         1 ERA       0.038200
     86 HBLA        -4.1360     1.2880    -3.0640 hc         1 ERA       0.038200
     87 HBM         -6.4270     1.7580    -2.1390 hc         1 ERA       0.037200
     88 HBMA        -7.1130     1.5850    -3.7550 hc         1 ERA       0.037200
     89 HBN         -6.3170    -0.8020    -3.8300 hc         1 ERA       0.040700
     90 HBNA        -5.6540    -0.6280    -2.2040 hc         1 ERA       0.040700
     91 HBO         -7.9600    -0.1320    -1.3290 hc         1 ERA       0.044700
     92 HBOA        -8.6170    -0.3400    -2.9460 hc         1 ERA       0.044700
     93 HBP         -7.4810    -2.7880    -2.8020 ha         1 ERA       0.167000
     94 HBQ         -9.0570    -2.1120    -0.2310 ha         1 ERA       0.168000
     95 HBR         -8.2150    -4.8180    -1.5670 ha         1 ERA       0.168000
     96 HBS         -9.8120    -4.1420     0.9920 ha         1 ERA       0.167000
     97 HBU         -8.1310    -6.3230     2.1640 hc         1 ERA       0.040200
     98 HBUA        -7.3490    -6.6470     0.6170 hc         1 ERA       0.040200
     99 HBV         -9.2850    -8.5540     2.0470 hc         1 ERA       0.037200
    100 HBVA        -8.5010    -8.8780     0.5000 hc         1 ERA       0.037200
    101 CBW         -7.1580    -8.9510     2.2010 c3         1 ERA      -0.074400
    102 HBT        -10.3800    -6.4480     1.0500 hc         1 ERA       0.044700
    103 HBTA        -9.6030    -6.7700    -0.4930 hc         1 ERA       0.044700
    104 CBX         -7.2800   -10.4660     2.4530 c3         1 ERA      -0.088100
    105 CAQ          2.9840    -9.0840     2.1210 c3         1 ERA      -0.075400
    106 CAR          2.3920   -10.2030     1.2370 c3         1 ERA      -0.074400
    107 CAS          2.1580   -11.5190     2.0030 c3         1 ERA      -0.088100
    108 HBX         -8.1620   -10.6880     3.0660 hc         1 ERA       0.031367
    109 HBX1        -7.3690   -11.0110     1.5050 hc         1 ERA       0.031367
    110 HBX2        -6.3930   -10.8380     2.9810 hc         1 ERA       0.031367
    111 HAQ          3.9360    -9.4260     2.5460 hc         1 ERA       0.036700
    112 HAQA         2.3070    -8.8950     2.9640 hc         1 ERA       0.036700
    113 HAR          1.4400    -9.8640     0.8100 hc         1 ERA       0.036700
    114 HARA         3.0690   -10.3970     0.3950 hc         1 ERA       0.036700
    115 HAS          3.1000   -11.9030     2.4130 hc         1 ERA       0.031367
    116 HAS1         1.4560   -11.3650     2.8320 hc         1 ERA       0.031367
    117 HAS2         1.7380   -12.2810     1.3360 hc         1 ERA       0.031367
    118 HBW         -6.2490    -8.7590     1.6170 hc         1 ERA       0.037200
    119 HBWA        -7.0330    -8.4390     3.1640 hc         1 ERA       0.037200
    120 CBB          4.1100     5.2400    -0.6390 c          1 ERA       0.599100
@<TRIPOS>BOND
     1     1     3 1   
     2     1    40 1   
     3     2     4 1   
     4     2    41 1   
     5     2   120 1   
     6     3     4 1   
     7     3    42 1   
     8     3    43 1   
     9     4     5 1   
    10     4    44 1   
    11     5     6 1   
    12     5     7 1   
    13     5    45 1   
    14     6    46 1   
    15     7     8 2   
    16     7    47 1   
    17     8     9 1   
    18     8    48 1   
    19     9    10 1   
    20     9    49 1   
    21     9    50 1   
    22    10    11 1   
    23    10    51 1   
    24    10    52 1   
    25    11    12 1   
    26    11    53 1   
    27    11    54 1   
    28    12    13 1   
    29    12    55 1   
    30    12    56 1   
    31    13    14 1   
    32    13    57 1   
    33    13    58 1   
    34    14    15 1   
    35    14    59 1   
    36    14    60 1   
    37    15    16 1   
    38    15    61 1   
    39    15    62 1   
    40    16    17 1   
    41    16    63 1   
    42    16    64 1   
    43    17    18 1   
    44    17    65 1   
    45    17    66 1   
    46    18    67 1   
    47    18    68 1   
    48    18   105 1   
    49    19   120 2   
    50    20    21 1   
    51    20    69 1   
    52    20    70 1   
    53    20   120 1   
    54    21    22 1   
    55    21    71 1   
    56    21    72 1   
    57    22    23 1   
    58    22    73 1   
    59    22    74 1   
    60    23    24 1   
    61    23    75 1   
    62    23    76 1   
    63    24    25 1   
    64    24    77 1   
    65    24    78 1   
    66    25    26 2   
    67    25    79 1   
    68    26    27 1   
    69    26    80 1   
    70    27    28 1   
    71    27    81 1   
    72    27    82 1   
    73    28    29 1   
    74    28    83 1   
    75    28    84 1   
    76    29    30 1   
    77    29    85 1   
    78    29    86 1   
    79    30    31 1   
    80    30    87 1   
    81    30    88 1   
    82    31    32 1   
    83    31    89 1   
    84    31    90 1   
    85    32    33 1   
    86    32    91 1   
    87    32    92 1   
    88    33    34 2   
    89    33    93 1   
    90    34    35 1   
    91    34    94 1   
    92    35    36 2   
    93    35    95 1   
    94    36    39 1   
    95    36    96 1   
    96    37    38 1   
    97    37    39 1   
    98    37    97 1   
    99    37    98 1   
   100    38    99 1   
   101    38   100 1   
   102    38   101 1   
   103    39   102 1   
   104    39   103 1   
   105   101   104 1   
   106   101   118 1   
   107   101   119 1   
   108   104   108 1   
   109   104   109 1   
   110   104   110 1   
   111   105   106 1   
   112   105   111 1   
   113   105   112 1   
   114   106   107 1   
   115   106   113 1   
   116   106   114 1   
   117   107   115 1   
   118   107   116 1   
   119   107   117 1   
@<TRIPOS>SUBSTRUCTURE
     1 ERA         1 TEMP              0 ****  ****    0 ROOT
