@<TRIPOS>MOLECULE
ERB
  117   119     1     0     0
SMALL
No Charge or Current Charge


@<TRIPOS>ATOM
      1 C1          -2.3790    -2.6350    -0.9450 c          1 ERB       0.595100
      2 N1           6.1280     2.2520    -0.7920 n3         1 ERB      -0.711600
      3 O1          -2.0350    -3.4160    -0.0690 o          1 ERB      -0.493000
      4 C2          -1.4250    -2.0410    -1.9910 c3         1 ERB      -0.144700
      5 O2          -3.6400    -2.1160    -1.0830 os         1 ERB      -0.464100
      6 C3          -0.5800    -0.9140    -1.3150 c3         1 ERB       0.186300
      7 O3           0.8130    -1.2690    -1.2870 os         1 ERB      -0.442000
      8 C4          -0.6900     0.4930    -1.9710 c3         1 ERB      -0.077700
      9 O4           1.2630    -1.1390     0.9840 os         1 ERB      -0.483000
     10 C5          -0.1430     1.5810    -0.9760 c3         1 ERB       0.183300
     11 O5           4.7450    -3.4150     0.6580 os         1 ERB      -0.440000
     12 C6          -1.1140     2.7710    -0.6130 c3         1 ERB       0.190000
     13 O6           4.0980    -1.3660     2.1360 oh         1 ERB      -0.696000
     14 C7          -2.3760     2.1820     0.1090 c3         1 ERB      -0.106400
     15 O7           1.1200     2.1040    -1.4520 os         1 ERB      -0.443000
     16 C8          -3.2620     3.0640     1.0480 c3         1 ERB      -0.158700
     17 O8           3.7520     1.5640    -2.5480 oh         1 ERB      -0.699000
     18 C9          -4.1840     2.1440     1.8910 c          1 ERB       0.573100
     19 O9           2.0710     2.6110     0.6090 os         1 ERB      -0.467000
     20 C10         -5.2260     1.2690     1.1550 c3         1 ERB      -0.205700
     21 O10         -0.4300     3.6360     0.3010 oh         1 ERB      -0.689000
     22 C11         -4.6960    -0.1910     1.0190 c3         1 ERB       0.187300
     23 O11         -4.0470     2.0520     3.1050 o          1 ERB      -0.528100
     24 C12         -5.5140    -1.1670     0.1070 c3         1 ERB      -0.058700
     25 O12         -4.5880    -0.7570     2.3290 oh         1 ERB      -0.666000
     26 C13         -4.6870    -2.4720    -0.1520 c3         1 ERB       0.180300
     27 C14          1.2680    -2.0180    -0.1560 c6         1 ERB       0.384300
     28 C15          2.7070    -2.5000    -0.4170 c6         1 ERB      -0.125400
     29 C16          3.3000    -3.2580     0.8140 c6         1 ERB       0.203000
     30 C17          3.0890    -2.3940     2.1190 c6         1 ERB       0.156300
     31 C18          1.6600    -1.7510     2.2320 c6         1 ERB       0.147300
     32 C19          2.7030    -4.6950     0.9520 c3         1 ERB      -0.127100
     33 C20          5.2810    -4.1020    -0.4950 c3         1 ERB       0.148900
     34 C21          0.5130    -2.6720     2.7440 c3         1 ERB      -0.125100
     35 C22          2.2460     1.8520    -0.5980 c6         1 ERB       0.354300
     36 C23          3.5900     2.2460    -1.2790 c6         1 ERB       0.154300
     37 C24          4.7530     1.9360    -0.2650 c6         1 ERB       0.193500
     38 C25          4.4600     2.6350     1.1010 c6         1 ERB      -0.147400
     39 C26          3.0420     2.2780     1.6150 c6         1 ERB       0.179300
     40 C27          2.6570     3.0590     2.8920 c3         1 ERB      -0.082100
     41 C29          7.2280     1.6850     0.0220 c3         1 ERB       0.160600
     42 C30         -0.6370    -3.1310    -2.7670 c3         1 ERB      -0.073100
     43 C31         -0.1050     0.5680    -3.4100 c3         1 ERB      -0.079100
     44 C32         -1.4770     3.6120    -1.8640 c3         1 ERB      -0.120100
     45 C33         -4.0690     4.1730     0.3280 c3         1 ERB      -0.084100
     46 C34         -6.6360     1.3870     1.8010 c3         1 ERB      -0.075100
     47 C35         -6.0060    -0.5110    -1.2200 c3         1 ERB      -0.083100
     48 C36         -5.5110    -3.6400    -0.7660 c3         1 ERB      -0.090400
     49 C37         -4.7660    -4.9900    -0.8370 c3         1 ERB      -0.089100
     50 H2          -2.0690    -1.5430    -2.7250 hc         1 ERB       0.078700
     51 H3          -0.9570    -0.8010    -0.2880 h1         1 ERB       0.047700
     52 H4          -1.7620     0.6740    -2.0950 hc         1 ERB       0.049700
     53 H5           0.0320     1.0690    -0.0190 h1         1 ERB       0.086700
     54 HO6          4.8480    -1.7790     1.6420 ho         1 ERB       0.499000
     55 H7          -3.0310     1.7350    -0.6480 hc         1 ERB       0.050700
     56 H7A         -2.0250     1.3490     0.7310 hc         1 ERB       0.050700
     57 H8          -2.6010     3.5580     1.7710 hc         1 ERB       0.086700
     58 HO8          2.8810     1.6390    -3.0010 ho         1 ERB       0.507000
     59 H10         -5.2920     1.6690     0.1390 hc         1 ERB       0.071700
     60 HO10         0.5160     3.3330     0.3020 ho         1 ERB       0.497000
     61 H11         -3.6930    -0.1290     0.5810 h1         1 ERB       0.028700
     62 H12         -6.4120    -1.4570     0.6670 hc         1 ERB       0.071700
     63 HO12        -4.3880    -0.0150     2.9430 ho         1 ERB       0.466000
     64 H13         -4.2780    -2.8090     0.8100 h1         1 ERB       0.085700
     65 H14          0.6040    -2.8780     0.0060 h2         1 ERB       0.044700
     66 H15          2.7000    -3.1440    -1.3060 hc         1 ERB       0.071200
     67 H15A         3.3320    -1.6300    -0.6620 hc         1 ERB       0.071200
     68 H17          3.2390    -3.0480     2.9910 h1         1 ERB       0.045700
     69 H18          1.7390    -0.9450     2.9760 h1         1 ERB       0.066700
     70 H19          3.1940    -5.2490     1.7610 hc         1 ERB       0.047033
     71 H19A         1.6330    -4.6910     1.1630 hc         1 ERB       0.047033
     72 H19B         2.8220    -5.2770     0.0310 hc         1 ERB       0.047033
     73 H20          6.3770    -4.0860    -0.4620 h1         1 ERB       0.028033
     74 H20A         4.9680    -5.1530    -0.5200 h1         1 ERB       0.028033
     75 H20B         4.9710    -3.6180    -1.4290 h1         1 ERB       0.028033
     76 H21          0.1470    -3.3860     2.0030 hc         1 ERB       0.048367
     77 H21A         0.8310    -3.2380     3.6270 hc         1 ERB       0.048367
     78 H21B        -0.3490    -2.0650     3.0450 hc         1 ERB       0.048367
     79 H22          2.2770     0.7790    -0.3580 h2         1 ERB       0.046700
     80 H23          3.5560     3.3320    -1.4490 h1         1 ERB       0.049700
     81 H24          4.7060     0.8510    -0.0780 h1         1 ERB       0.064700
     82 H25          5.1980     2.3320     1.8550 hc         1 ERB       0.053700
     83 H25A         4.5400     3.7250     0.9980 hc         1 ERB       0.053700
     84 H26          2.9810     1.2010     1.8310 h1         1 ERB       0.050700
     85 H27          1.6490     2.7880     3.2270 hc         1 ERB       0.041033
     86 H27A         3.3500     2.8350     3.7120 hc         1 ERB       0.041033
     87 H27B         2.6770     4.1410     2.7210 hc         1 ERB       0.041033
     88 H28          6.3560     4.3160    -0.2660 h1         1 ERB       0.028033
     89 H28A         7.3430     3.7830    -1.6400 h1         1 ERB       0.028033
     90 H28B         5.6060     4.0370    -1.8570 h1         1 ERB       0.028033
     91 H29          7.0550     0.6190     0.2210 h1         1 ERB       0.028033
     92 H29A         8.1850     1.7770    -0.5080 h1         1 ERB       0.028033
     93 H29B         7.3220     2.2060     0.9830 h1         1 ERB       0.028033
     94 H30         -1.3310    -3.8030    -3.2880 hc         1 ERB       0.047367
     95 H30A         0.0200    -2.6770    -3.5190 hc         1 ERB       0.047367
     96 H30B        -0.0240    -3.7410    -2.0940 hc         1 ERB       0.047367
     97 H31         -0.6200    -0.1300    -4.0790 hc         1 ERB       0.041700
     98 H31A        -0.2250     1.5760    -3.8250 hc         1 ERB       0.041700
     99 H31B         0.9620     0.3170    -3.4210 hc         1 ERB       0.041700
    100 H32         -2.1140     3.0440    -2.5510 hc         1 ERB       0.044033
    101 H32A        -2.0050     4.5320    -1.5960 hc         1 ERB       0.044033
    102 H32B        -0.5730     3.9080    -2.4110 hc         1 ERB       0.044033
    103 H33         -4.5680     3.7910    -0.5710 hc         1 ERB       0.039367
    104 H33A        -4.8350     4.5860     0.9960 hc         1 ERB       0.039367
    105 H33B        -3.4160     5.0030     0.0370 hc         1 ERB       0.039367
    106 H34         -6.9610     2.4340     1.8180 hc         1 ERB       0.044033
    107 H34A        -7.3810     0.8150     1.2360 hc         1 ERB       0.044033
    108 H34B        -6.6360     1.0170     2.8330 hc         1 ERB       0.044033
    109 H35         -5.1680    -0.0900    -1.7890 hc         1 ERB       0.038367
    110 H35A        -6.5230    -1.2350    -1.8590 hc         1 ERB       0.038367
    111 H35B        -6.7230     0.2940    -1.0240 hc         1 ERB       0.038367
    112 H36         -6.4170    -3.7820    -0.1650 hc         1 ERB       0.048200
    113 H36A        -5.8420    -3.3770    -1.7760 hc         1 ERB       0.048200
    114 H37         -3.9240    -4.9390    -1.5370 hc         1 ERB       0.038367
    115 H37A        -4.3850    -5.2780     0.1500 hc         1 ERB       0.038367
    116 H37B        -5.4440    -5.7790    -1.1850 hc         1 ERB       0.038367
    117 C28          6.3650     3.6710    -1.1540 c3         1 ERB       0.160600
@<TRIPOS>BOND
     1     1     3 2   
     2     1     4 1   
     3     1     5 1   
     4     2    37 1   
     5     2    41 1   
     6     2   117 1   
     7     4     6 1   
     8     4    42 1   
     9     4    50 1   
    10     5    26 1   
    11     6     7 1   
    12     6     8 1   
    13     6    51 1   
    14     7    27 1   
    15     8    10 1   
    16     8    43 1   
    17     8    52 1   
    18     9    27 1   
    19     9    31 1   
    20    10    12 1   
    21    10    15 1   
    22    10    53 1   
    23    11    29 1   
    24    11    33 1   
    25    12    14 1   
    26    12    21 1   
    27    12    44 1   
    28    13    30 1   
    29    13    54 1   
    30    14    16 1   
    31    14    55 1   
    32    14    56 1   
    33    15    35 1   
    34    16    18 1   
    35    16    45 1   
    36    16    57 1   
    37    17    36 1   
    38    17    58 1   
    39    18    20 1   
    40    18    23 2   
    41    19    35 1   
    42    19    39 1   
    43    20    22 1   
    44    20    46 1   
    45    20    59 1   
    46    21    60 1   
    47    22    24 1   
    48    22    25 1   
    49    22    61 1   
    50    24    26 1   
    51    24    47 1   
    52    24    62 1   
    53    25    63 1   
    54    26    48 1   
    55    26    64 1   
    56    27    28 1   
    57    27    65 1   
    58    28    29 1   
    59    28    66 1   
    60    28    67 1   
    61    29    30 1   
    62    29    32 1   
    63    30    31 1   
    64    30    68 1   
    65    31    34 1   
    66    31    69 1   
    67    32    70 1   
    68    32    71 1   
    69    32    72 1   
    70    33    73 1   
    71    33    74 1   
    72    33    75 1   
    73    34    76 1   
    74    34    77 1   
    75    34    78 1   
    76    35    36 1   
    77    35    79 1   
    78    36    37 1   
    79    36    80 1   
    80    37    38 1   
    81    37    81 1   
    82    38    39 1   
    83    38    82 1   
    84    38    83 1   
    85    39    40 1   
    86    39    84 1   
    87    40    85 1   
    88    40    86 1   
    89    40    87 1   
    90    41    91 1   
    91    41    92 1   
    92    41    93 1   
    93    42    94 1   
    94    42    95 1   
    95    42    96 1   
    96    43    97 1   
    97    43    98 1   
    98    43    99 1   
    99    44   100 1   
   100    44   101 1   
   101    44   102 1   
   102    45   103 1   
   103    45   104 1   
   104    45   105 1   
   105    46   106 1   
   106    46   107 1   
   107    46   108 1   
   108    47   109 1   
   109    47   110 1   
   110    47   111 1   
   111    48    49 1   
   112    48   112 1   
   113    48   113 1   
   114    49   114 1   
   115    49   115 1   
   116    49   116 1   
   117    88   117 1   
   118    89   117 1   
   119    90   117 1   
@<TRIPOS>SUBSTRUCTURE
     1 ERB         1 TEMP              0 ****  ****    0 ROOT
