@<TRIPOS>MOLECULE
ERB
  117   119     1     0     0
SMALL
bcc


@<TRIPOS>ATOM
      1 C1          -2.1820    -2.5880    -1.2640 c          1 ERB       0.644100
      2 N1           5.9720     2.6080    -1.7840 n3         1 ERB      -0.711600
      3 O1          -1.8820    -3.4990    -0.5330 o          1 ERB      -0.542000
      4 C2          -1.1990    -1.7980    -2.1050 c3         1 ERB      -0.144700
      5 O2          -3.4130    -2.1180    -1.4090 os         1 ERB      -0.440900
      6 C3          -0.4870    -0.7390    -1.2000 c3         1 ERB       0.163100
      7 O3           0.8430    -1.1080    -0.9040 os         1 ERB      -0.395600
      8 C4          -0.4810     0.6640    -1.8250 c3         1 ERB      -0.077700
      9 O4           0.9020    -0.9190     1.3380 os         1 ERB      -0.436600
     10 C5           0.0300     1.7210    -0.7950 c3         1 ERB       0.160100
     11 O5           4.0200    -3.5500     1.7450 os         1 ERB      -0.394600
     12 C6          -1.0520     2.7530    -0.3960 c3         1 ERB       0.166800
     13 O6           3.4000    -1.3500     2.8420 oh         1 ERB      -0.573800
     14 C7          -2.1990     1.9500     0.2660 c3         1 ERB      -0.106400
     15 O7           1.1650     2.4260    -1.2620 os         1 ERB      -0.396600
     16 C8          -3.0840     2.6660     1.3020 c3         1 ERB      -0.158700
     17 O8           3.4280     2.2740    -2.9430 oh         1 ERB      -0.576800
     18 C9          -3.8630     1.5820     2.0250 c          1 ERB       0.573100
     19 O9           2.4860     2.3480     0.5740 os         1 ERB      -0.420600
     20 C10         -4.9490     0.8440     1.2640 c3         1 ERB      -0.205700
     21 O10         -0.4320     3.5930     0.5550 oh         1 ERB      -0.566800
     22 C11         -4.4310    -0.5790     0.9420 c3         1 ERB       0.164100
     23 O11         -3.5840     1.2610     3.1630 o          1 ERB      -0.528100
     24 C12         -5.2530    -1.3100    -0.1310 c3         1 ERB      -0.058700
     25 O12         -4.3990    -1.3990     2.0840 oh         1 ERB      -0.603800
     26 C13         -4.5050    -2.5750    -0.5840 c3         1 ERB       0.157100
     27 C14          1.0250    -1.8240     0.2710 c6         1 ERB       0.337900
     28 C15          2.4010    -2.4590     0.2620 c6         1 ERB      -0.125400
     29 C16          2.6530    -3.2110     1.5790 c6         1 ERB       0.179800
     30 C17          2.3370    -2.2720     2.7650 c6         1 ERB       0.133100
     31 C18          1.0030    -1.5150     2.6160 c6         1 ERB       0.124100
     32 C19          1.8210    -4.4930     1.6530 c3         1 ERB      -0.127100
     33 C20          4.6640    -4.1880     0.6700 c3         1 ERB       0.125700
     34 C21         -0.2580    -2.2750     3.0150 c3         1 ERB      -0.125100
     35 C22          2.3790     1.9770    -0.7690 c6         1 ERB       0.307900
     36 C23          3.5050     2.6180    -1.5830 c6         1 ERB       0.131100
     37 C24          4.8360     2.1110    -1.0250 c6         1 ERB       0.193500
     38 C25          4.8850     2.3680     0.4880 c6         1 ERB      -0.147400
     39 C26          3.6480     1.8080     1.1790 c6         1 ERB       0.156100
     40 C27          3.5990     2.1330     2.6560 c3         1 ERB      -0.082100
     41 C29          7.1930     1.8880    -1.5000 c3         1 ERB       0.160600
     42 C30         -0.2490    -2.7390    -2.8380 c3         1 ERB      -0.073100
     43 C31          0.2460     0.7140    -3.1650 c3         1 ERB      -0.079100
     44 C32         -1.5180     3.5650    -1.6030 c3         1 ERB      -0.120100
     45 C33         -4.0180     3.7340     0.7300 c3         1 ERB      -0.084100
     46 C34         -6.2670     0.8380     2.0340 c3         1 ERB      -0.075100
     47 C35         -5.6110    -0.4100    -1.3130 c3         1 ERB      -0.083100
     48 C36         -5.3790    -3.5400    -1.3710 c3         1 ERB      -0.090400
     49 C37         -4.6890    -4.8360    -1.7730 c3         1 ERB      -0.089100
     50 H2          -1.7830    -1.2550    -2.8510 hc         1 ERB       0.078700
     51 H3          -1.0500    -0.6520    -0.2620 h1         1 ERB       0.047700
     52 H4          -1.5330     0.8700    -2.0410 hc         1 ERB       0.049700
     53 H5           0.3040     1.2060     0.1310 h1         1 ERB       0.086700
     54 HO6          3.2010    -0.7120     3.5350 ho         1 ERB       0.400000
     55 H7          -2.8340     1.5250    -0.5170 hc         1 ERB       0.050700
     56 H7A         -1.7360     1.1050     0.7890 hc         1 ERB       0.050700
     57 H8          -2.4360     3.1230     2.0540 hc         1 ERB       0.086700
     58 HO8          2.5820     2.5830    -3.2800 ho         1 ERB       0.408000
     59 H10         -5.1030     1.3550     0.3140 hc         1 ERB       0.071700
     60 HO10        -0.9930     4.3640     0.6900 ho         1 ERB       0.398000
     61 H11         -3.4130    -0.4610     0.5380 h1         1 ERB       0.028700
     62 H12         -6.1820    -1.6520     0.3380 hc         1 ERB       0.071700
     63 HO12        -3.9430    -0.9290     2.7920 ho         1 ERB       0.427000
     64 H13         -4.1050    -3.0950     0.2890 h1         1 ERB       0.085700
     65 H14          0.2550    -2.6030     0.3550 h2         1 ERB       0.044700
     66 H15          2.4700    -3.1440    -0.5880 hc         1 ERB       0.071200
     67 H15A         3.1540    -1.6780     0.1230 hc         1 ERB       0.071200
     68 H17          2.2830    -2.8750     3.6840 h1         1 ERB       0.045700
     69 H18          1.0590    -0.6690     3.3110 h1         1 ERB       0.066700
     70 H19          1.9190    -4.9630     2.6320 hc         1 ERB       0.047033
     71 H19A         0.7610    -4.3370     1.4670 hc         1 ERB       0.047033
     72 H19B         2.1540    -5.2130     0.9030 hc         1 ERB       0.047033
     73 H20          5.6610    -4.4590     1.0160 h1         1 ERB       0.028033
     74 H20A         4.1650    -5.1060     0.3440 h1         1 ERB       0.028033
     75 H20B         4.7770    -3.5390    -0.2040 h1         1 ERB       0.028033
     76 H21         -0.5090    -3.1170     2.3730 hc         1 ERB       0.048367
     77 H21A        -0.1580    -2.6580     4.0310 hc         1 ERB       0.048367
     78 H21B        -1.1100    -1.5950     3.0050 hc         1 ERB       0.048367
     79 H22          2.4570     0.8790    -0.8550 h2         1 ERB       0.046700
     80 H23          3.4290     3.7080    -1.4410 h1         1 ERB       0.049700
     81 H24          4.8340     1.0210    -1.1710 h1         1 ERB       0.064700
     82 H25          5.7760     1.9020     0.9170 hc         1 ERB       0.053700
     83 H25A         4.9550     3.4410     0.6940 hc         1 ERB       0.053700
     84 H26          3.6390     0.7140     1.0650 h1         1 ERB       0.050700
     85 H27          2.7010     1.7180     3.1170 hc         1 ERB       0.041033
     86 H27A         4.4660     1.7100     3.1630 hc         1 ERB       0.041033
     87 H27B         3.6030     3.2110     2.8260 hc         1 ERB       0.041033
     88 H28          6.4810     4.4150    -0.7420 h1         1 ERB       0.028033
     89 H28A         6.9670     4.3130    -2.4330 h1         1 ERB       0.028033
     90 H28B         5.2810     4.5770    -2.0310 h1         1 ERB       0.028033
     91 H29          7.0260     0.8140    -1.5890 h1         1 ERB       0.028033
     92 H29A         7.9600     2.1650    -2.2260 h1         1 ERB       0.028033
     93 H29B         7.6120     2.0800    -0.5000 h1         1 ERB       0.028033
     94 H30         -0.8140    -3.3930    -3.5040 hc         1 ERB       0.047367
     95 H30A         0.4600    -2.1830    -3.4490 hc         1 ERB       0.047367
     96 H30B         0.3200    -3.3700    -2.1590 hc         1 ERB       0.047367
     97 H31         -0.2260     0.0370    -3.8780 hc         1 ERB       0.041700
     98 H31A         0.1930     1.7120    -3.5990 hc         1 ERB       0.041700
     99 H31B         1.2950     0.4330    -3.0870 hc         1 ERB       0.041700
    100 H32         -2.0470     2.9490    -2.3310 hc         1 ERB       0.044033
    101 H32A        -2.2020     4.3640    -1.3150 hc         1 ERB       0.044033
    102 H32B        -0.6700     4.0280    -2.1070 hc         1 ERB       0.044033
    103 H33         -4.5500     3.3900    -0.1580 hc         1 ERB       0.039367
    104 H33A        -4.7580     4.0480     1.4670 hc         1 ERB       0.039367
    105 H33B        -3.4590     4.6250     0.4490 hc         1 ERB       0.039367
    106 H34         -6.6380     1.8540     2.1740 hc         1 ERB       0.044033
    107 H34A        -7.0340     0.2850     1.4900 hc         1 ERB       0.044033
    108 H34B        -6.1640     0.3830     3.0170 hc         1 ERB       0.044033
    109 H35         -4.7450     0.1310    -1.6980 hc         1 ERB       0.038367
    110 H35A        -6.0260    -0.9850    -2.1400 hc         1 ERB       0.038367
    111 H35B        -6.3660     0.3270    -1.0430 hc         1 ERB       0.038367
    112 H36         -6.2420    -3.7720    -0.7400 hc         1 ERB       0.048200
    113 H36A        -5.7780    -3.0500    -2.2620 hc         1 ERB       0.048200
    114 H37         -3.8860    -4.6700    -2.4910 hc         1 ERB       0.038367
    115 H37A        -4.2660    -5.3510    -0.9100 hc         1 ERB       0.038367
    116 H37B        -5.4050    -5.5090    -2.2440 hc         1 ERB       0.038367
    117 C28          6.1790     4.0390    -1.7300 c3         1 ERB       0.160600
@<TRIPOS>BOND
     1     1     3 2   
     2     1     4 1   
     3     1     5 1   
     4     2    37 1   
     5     2    41 1   
     6     2   117 1   
     7     4     6 1   
     8     4    42 1   
     9     4    50 1   
    10     5    26 1   
    11     6     7 1   
    12     6     8 1   
    13     6    51 1   
    14     7    27 1   
    15     8    10 1   
    16     8    43 1   
    17     8    52 1   
    18     9    27 1   
    19     9    31 1   
    20    10    12 1   
    21    10    15 1   
    22    10    53 1   
    23    11    29 1   
    24    11    33 1   
    25    12    14 1   
    26    12    21 1   
    27    12    44 1   
    28    13    30 1   
    29    13    54 1   
    30    14    16 1   
    31    14    55 1   
    32    14    56 1   
    33    15    35 1   
    34    16    18 1   
    35    16    45 1   
    36    16    57 1   
    37    17    36 1   
    38    17    58 1   
    39    18    20 1   
    40    18    23 2   
    41    19    35 1   
    42    19    39 1   
    43    20    22 1   
    44    20    46 1   
    45    20    59 1   
    46    21    60 1   
    47    22    24 1   
    48    22    25 1   
    49    22    61 1   
    50    24    26 1   
    51    24    47 1   
    52    24    62 1   
    53    25    63 1   
    54    26    48 1   
    55    26    64 1   
    56    27    28 1   
    57    27    65 1   
    58    28    29 1   
    59    28    66 1   
    60    28    67 1   
    61    29    30 1   
    62    29    32 1   
    63    30    31 1   
    64    30    68 1   
    65    31    34 1   
    66    31    69 1   
    67    32    70 1   
    68    32    71 1   
    69    32    72 1   
    70    33    73 1   
    71    33    74 1   
    72    33    75 1   
    73    34    76 1   
    74    34    77 1   
    75    34    78 1   
    76    35    36 1   
    77    35    79 1   
    78    36    37 1   
    79    36    80 1   
    80    37    38 1   
    81    37    81 1   
    82    38    39 1   
    83    38    82 1   
    84    38    83 1   
    85    39    40 1   
    86    39    84 1   
    87    40    85 1   
    88    40    86 1   
    89    40    87 1   
    90    41    91 1   
    91    41    92 1   
    92    41    93 1   
    93    42    94 1   
    94    42    95 1   
    95    42    96 1   
    96    43    97 1   
    97    43    98 1   
    98    43    99 1   
    99    44   100 1   
   100    44   101 1   
   101    44   102 1   
   102    45   103 1   
   103    45   104 1   
   104    45   105 1   
   105    46   106 1   
   106    46   107 1   
   107    46   108 1   
   108    47   109 1   
   109    47   110 1   
   110    47   111 1   
   111    48    49 1   
   112    48   112 1   
   113    48   113 1   
   114    49   114 1   
   115    49   115 1   
   116    49   116 1   
   117    88   117 1   
   118    89   117 1   
   119    90   117 1   
@<TRIPOS>SUBSTRUCTURE
     1 ERB         1 TEMP              0 ****  ****    0 ROOT
