@<TRIPOS>MOLECULE
ERC
   59    61     1     0     0
SMALL
bcc


@<TRIPOS>ATOM
      1 C1          -7.2590     2.6710     0.4790 c          1 ERC       0.698700
      2 N1          -7.3220     1.8560    -0.6170 ns         1 ERC      -0.429100
      3 O1          -7.9710     3.6640     0.5770 o          1 ERC      -0.629500
      4 S1          10.3310     2.1170    -1.4640 sh         1 ERC      -0.396900
      5 C2          -6.2960     2.2480     1.4800 cc         1 ERC      -0.235200
      6 N2          -1.4500    -1.0770     1.4900 n7         1 ERC      -0.839200
      7 O2          -7.6720     0.4360    -2.8650 oh         1 ERC      -0.505100
      8 C3          -5.5380     1.1470     1.3140 cd         1 ERC      -0.046200
      9 O3          -3.5330    -2.6310     0.7930 oh         1 ERC      -0.600800
     10 C4          -5.6330     0.3230     0.1410 ca         1 ERC      -0.097800
     11 O4           4.6960    -2.3300    -1.1750 os         1 ERC      -0.297900
     12 C5          -6.5690     0.7260    -0.8210 ca         1 ERC       0.074600
     13 O5           6.0590    -0.3650    -0.2340 os         1 ERC      -0.302900
     14 C6          -6.7470    -0.0200    -1.9980 ca         1 ERC       0.091100
     15 C7          -5.9820    -1.1480    -2.1920 ca         1 ERC      -0.182000
     16 C8          -5.0440    -1.5480    -1.2380 ca         1 ERC      -0.097000
     17 C9          -4.8540    -0.8370    -0.0730 ca         1 ERC      -0.066300
     18 C10         -3.8000    -1.2600     0.9200 c3         1 ERC       0.201400
     19 C11         -2.5010    -0.4750     0.6940 c3         1 ERC       0.114800
     20 C12         -0.1060    -0.7230     1.0710 c3         1 ERC       0.166800
     21 C13          0.9410    -1.4620     1.9000 c3         1 ERC      -0.030100
     22 C14          2.3300    -1.1710     1.4050 ca         1 ERC      -0.082300
     23 C15          3.0840    -0.1340     1.9220 ca         1 ERC      -0.122000
     24 C16          4.3450     0.1620     1.4020 ca         1 ERC      -0.188000
     25 C17          4.8640    -0.5780     0.3540 ca         1 ERC       0.117100
     26 C18          4.1120    -1.6490    -0.1700 ca         1 ERC       0.115100
     27 C19          2.8630    -1.9280     0.3550 ca         1 ERC      -0.185000
     28 C20          4.0080    -3.4380    -1.7180 c3         1 ERC       0.121700
     29 C21          6.8390     0.7340     0.1980 c3         1 ERC       0.139400
     30 C22          8.0450     0.8340    -0.7160 c3         1 ERC      -0.073400
     31 C23          8.9380     1.9910    -0.2950 c3         1 ERC       0.033700
     32 HN1         -7.9840     2.1200    -1.3340 hn         1 ERC       0.342500
     33 HS1         10.9740     3.1250    -0.8650 hs         1 ERC       0.210800
     34 H2          -6.2130     2.8530     2.3730 ha         1 ERC       0.158000
     35 HN2         -1.5760    -0.8250     2.4640 hn         1 ERC       0.358800
     36 HO2         -7.7320    -0.1390    -3.6370 ho         1 ERC       0.437000
     37 H3          -4.8420     0.8810     2.0970 ha         1 ERC       0.134000
     38 HO3         -2.6120    -2.7210     1.0920 ho         1 ERC       0.436000
     39 H7          -6.1050    -1.7340    -3.0960 ha         1 ERC       0.136000
     40 H8          -4.4640    -2.4400    -1.4290 ha         1 ERC       0.154000
     41 H10         -4.1580    -1.0480     1.9400 h1         1 ERC       0.038700
     42 H11         -2.6570     0.5930     0.8970 h1         1 ERC       0.048200
     43 H11A        -2.2230    -0.5600    -0.3610 h1         1 ERC       0.048200
     44 H12          0.0050    -1.0010     0.0190 h1         1 ERC       0.038200
     45 H12A         0.0830     0.3580     1.1290 h1         1 ERC       0.038200
     46 H13          0.8470    -1.1670     2.9490 hc         1 ERC       0.052700
     47 H13A         0.7360    -2.5340     1.8520 hc         1 ERC       0.052700
     48 H15          2.6980     0.4630     2.7390 ha         1 ERC       0.130000
     49 H16          4.9090     0.9780     1.8330 ha         1 ERC       0.136000
     50 H19          2.2730    -2.7440    -0.0440 ha         1 ERC       0.138000
     51 H20          3.0600    -3.1470    -2.1810 h1         1 ERC       0.040033
     52 H20A         4.6550    -3.8590    -2.4840 h1         1 ERC       0.040033
     53 H20B         3.8080    -4.2040    -0.9650 h1         1 ERC       0.040033
     54 H21          6.2560     1.6610     0.1500 h1         1 ERC       0.032200
     55 H21A         7.1550     0.5960     1.2390 h1         1 ERC       0.032200
     56 H22          8.6120    -0.1000    -0.6840 hc         1 ERC       0.073200
     57 H22A         7.7070     0.9790    -1.7440 hc         1 ERC       0.073200
     58 H23          9.3270     1.8290     0.7110 h1         1 ERC       0.057700
     59 H23A         8.3790     2.9280    -0.2960 h1         1 ERC       0.057700
@<TRIPOS>BOND
     1     1     2 1   
     2     1     3 2   
     3     1     5 1   
     4     2    12 1   
     5     2    32 1   
     6     4    31 1   
     7     4    33 1   
     8     5     8 2   
     9     5    34 1   
    10     6    19 1   
    11     6    20 1   
    12     6    35 1   
    13     7    14 1   
    14     7    36 1   
    15     8    10 1   
    16     8    37 1   
    17     9    18 1   
    18     9    38 1   
    19    10    12 ar  
    20    10    17 ar  
    21    11    26 1   
    22    11    28 1   
    23    12    14 ar  
    24    13    25 1   
    25    13    29 1   
    26    14    15 ar  
    27    15    16 ar  
    28    15    39 1   
    29    16    17 ar  
    30    16    40 1   
    31    17    18 1   
    32    18    19 1   
    33    18    41 1   
    34    19    42 1   
    35    19    43 1   
    36    20    21 1   
    37    20    44 1   
    38    20    45 1   
    39    21    22 1   
    40    21    46 1   
    41    21    47 1   
    42    22    23 ar  
    43    22    27 ar  
    44    23    24 ar  
    45    23    48 1   
    46    24    25 ar  
    47    24    49 1   
    48    25    26 ar  
    49    26    27 ar  
    50    27    50 1   
    51    28    51 1   
    52    28    52 1   
    53    28    53 1   
    54    29    30 1   
    55    29    54 1   
    56    29    55 1   
    57    30    31 1   
    58    30    56 1   
    59    30    57 1   
    60    31    58 1   
    61    31    59 1   
@<TRIPOS>SUBSTRUCTURE
     1 ERC         1 TEMP              0 ****  ****    0 ROOT
