@<TRIPOS>MOLECULE
ERC
   59    61     1     0     0
SMALL
No Charge or Current Charge


@<TRIPOS>ATOM
      1 C1          -7.5020     2.7850     0.2060 c          1 ERC       0.556200
      2 N1          -7.6270     1.7640    -0.6980 ns         1 ERC      -0.362100
      3 O1          -8.2210     3.7700     0.1790 o          1 ERC      -0.554000
      4 S1          10.9630     1.8980    -0.9350 sh         1 ERC      -0.444800
      5 C2          -6.4300     2.5720     1.1930 cc         1 ERC      -0.285200
      6 N2          -1.4480    -1.0890     1.4340 n7         1 ERC      -0.894400
      7 O2          -8.1020    -0.1610    -2.6980 oh         1 ERC      -0.544100
      8 C3          -5.6370     1.4390     1.1940 cd         1 ERC      -0.096200
      9 O3          -3.6440    -2.4630     1.3160 oh         1 ERC      -0.663000
     10 C4          -5.8400     0.3780     0.1860 ca         1 ERC      -0.097800
     11 O4           4.7430    -2.1730    -1.5250 os         1 ERC      -0.321100
     12 C5          -6.8600     0.5820    -0.7680 ca         1 ERC       0.074600
     13 O5           6.2280    -0.2320    -0.2790 os         1 ERC      -0.326100
     14 C6          -7.1110    -0.3690    -1.7760 ca         1 ERC       0.091100
     15 C7          -6.3320    -1.5320    -1.8390 ca         1 ERC      -0.164000
     16 C8          -5.3150    -1.7480    -0.8940 ca         1 ERC      -0.079000
     17 C9          -5.0590    -0.8100     0.1350 ca         1 ERC      -0.066300
     18 C10         -3.9340    -1.0750     1.1510 c3         1 ERC       0.224600
     19 C11         -2.5890    -0.4180     0.7400 c3         1 ERC       0.114800
     20 C12         -0.1110    -0.7310     0.9180 c3         1 ERC       0.166800
     21 C13          0.9860    -1.4960     1.6830 c3         1 ERC      -0.030100
     22 C14          2.3810    -1.1580     1.1710 ca         1 ERC      -0.082300
     23 C15          3.1460    -0.1630     1.8040 ca         1 ERC      -0.104000
     24 C16          4.4300     0.1560     1.3330 ca         1 ERC      -0.170000
     25 C17          4.9650    -0.5210     0.2140 ca         1 ERC       0.117100
     26 C18          4.1990    -1.5230    -0.4290 ca         1 ERC       0.115100
     27 C19          2.9070    -1.8350     0.0560 ca         1 ERC      -0.167000
     28 C20          4.0390    -3.2030    -2.2420 c3         1 ERC       0.144900
     29 C21          7.0750     0.7690     0.3090 c3         1 ERC       0.162600
     30 C22          8.3840     0.8050    -0.5000 c3         1 ERC      -0.073400
     31 C23          9.3850     1.8460     0.0330 c3         1 ERC       0.081600
     32 HN1         -8.3510     1.8690    -1.3970 hn         1 ERC       0.342500
     33 HS1         11.5530     2.8780    -0.2050 hs         1 ERC       0.210800
     34 H2          -6.3020     3.3660     1.9200 ha         1 ERC       0.208000
     35 HN2         -1.4760    -0.8250     2.4310 hn         1 ERC       0.414000
     36 HO2         -8.1240    -0.9260    -3.3150 ho         1 ERC       0.476000
     37 H3          -4.8600     1.3610     1.9490 ha         1 ERC       0.184000
     38 HO3         -2.6530    -2.4190     1.3930 ho         1 ERC       0.475000
     39 H7          -6.5070    -2.2730    -2.6150 ha         1 ERC       0.118000
     40 H8          -4.7210    -2.6560    -0.9690 ha         1 ERC       0.136000
     41 H10         -4.2270    -0.6760     2.1300 h1         1 ERC       0.038700
     42 H11         -2.6170     0.6570     0.9630 h1         1 ERC       0.048200
     43 H11A        -2.4790    -0.5240    -0.3480 h1         1 ERC       0.048200
     44 H12         -0.0360    -0.9780    -0.1500 h1         1 ERC       0.038200
     45 H12A         0.0650     0.3480     1.0240 h1         1 ERC       0.038200
     46 H13          0.9080    -1.2630     2.7520 hc         1 ERC       0.052700
     47 H13A         0.8030    -2.5730     1.5890 hc         1 ERC       0.052700
     48 H15          2.7440     0.3680     2.6650 ha         1 ERC       0.112000
     49 H16          4.9910     0.9310     1.8470 ha         1 ERC       0.118000
     50 H19          2.3000    -2.5980    -0.4220 ha         1 ERC       0.120000
     51 H20          3.1030    -2.8140    -2.6640 h1         1 ERC       0.040033
     52 H20A         4.6540    -3.5770    -3.0700 h1         1 ERC       0.040033
     53 H20B         3.8060    -4.0480    -1.5830 h1         1 ERC       0.040033
     54 H21          6.5930     1.7550     0.2720 h1         1 ERC       0.032200
     55 H21A         7.2980     0.5220     1.3560 h1         1 ERC       0.032200
     56 H22          8.8500    -0.1870    -0.4760 hc         1 ERC       0.073200
     57 H22A         8.1530     1.0320    -1.5480 hc         1 ERC       0.073200
     58 H23          9.6290     1.6180     1.0790 h1         1 ERC       0.057700
     59 H23A         8.9270     2.8440     0.0010 h1         1 ERC       0.057700
@<TRIPOS>BOND
     1     1     2 1   
     2     1     3 2   
     3     1     5 1   
     4     2    12 1   
     5     2    32 1   
     6     4    31 1   
     7     4    33 1   
     8     5     8 2   
     9     5    34 1   
    10     6    19 1   
    11     6    20 1   
    12     6    35 1   
    13     7    14 1   
    14     7    36 1   
    15     8    10 1   
    16     8    37 1   
    17     9    18 1   
    18     9    38 1   
    19    10    12 ar  
    20    10    17 ar  
    21    11    26 1   
    22    11    28 1   
    23    12    14 ar  
    24    13    25 1   
    25    13    29 1   
    26    14    15 ar  
    27    15    16 ar  
    28    15    39 1   
    29    16    17 ar  
    30    16    40 1   
    31    17    18 1   
    32    18    19 1   
    33    18    41 1   
    34    19    42 1   
    35    19    43 1   
    36    20    21 1   
    37    20    44 1   
    38    20    45 1   
    39    21    22 1   
    40    21    46 1   
    41    21    47 1   
    42    22    23 ar  
    43    22    27 ar  
    44    23    24 ar  
    45    23    48 1   
    46    24    25 ar  
    47    24    49 1   
    48    25    26 ar  
    49    26    27 ar  
    50    27    50 1   
    51    28    51 1   
    52    28    52 1   
    53    28    53 1   
    54    29    30 1   
    55    29    54 1   
    56    29    55 1   
    57    30    31 1   
    58    30    56 1   
    59    30    57 1   
    60    31    58 1   
    61    31    59 1   
@<TRIPOS>SUBSTRUCTURE
     1 ERC         1 TEMP              0 ****  ****    0 ROOT
