@<TRIPOS>MOLECULE
ERD
   33    35     1     0     0
SMALL
No Charge or Current Charge


@<TRIPOS>ATOM
      1 O13          3.1750    -4.8350     2.1790 o          1 ERD      -0.510100
      2 C9           2.1210    -4.7170     1.5690 c          1 ERD       0.602700
      3 C10          1.4040    -5.9400     1.0300 c6         1 ERD      -0.217400
      4 C11          1.0400    -5.6750    -0.4330 c6         1 ERD       0.235600
      5 C14          0.3040    -6.8530    -1.0840 ca         1 ERD      -0.095300
      6 C15          0.9320    -7.5970    -2.1040 ca         1 ERD      -0.085000
      7 C16          0.2680    -8.6810    -2.7040 ca         1 ERD      -0.126000
      8 C17         -1.0260    -9.0260    -2.2880 ca         1 ERD       0.135100
      9 O24         -1.6780   -10.0760    -2.8650 oh         1 ERD      -0.532100
     10 C18         -1.6640    -8.2890    -1.2700 ca         1 ERD       0.041100
     11 O23         -2.9310    -8.6310    -0.8690 oh         1 ERD      -0.558100
     12 C19         -0.9990    -7.2050    -0.6700 ca         1 ERD      -0.130000
     13 O12          0.2100    -4.5040    -0.5250 os         1 ERD      -0.338100
     14 C4           0.5520    -3.3670     0.1730 ca         1 ERD       0.251100
     15 C3           1.4950    -3.3990     1.2200 ca         1 ERD      -0.335600
     16 C5          -0.0840    -2.1720    -0.1740 ca         1 ERD      -0.243000
     17 C6           0.2240    -0.9950     0.5050 ca         1 ERD       0.246100
     18 O29         -0.3910     0.1640     0.1620 oh         1 ERD      -0.521100
     19 C1           1.1590    -1.0060     1.5400 ca         1 ERD      -0.374000
     20 C2           1.7910    -2.2020     1.9010 ca         1 ERD       0.273100
     21 O30          2.6660    -2.1680     2.9370 oh         1 ERD      -0.491100
     22 H101         2.0060    -6.8470     1.1700 hc         1 ERD       0.083700
     23 H102         0.4570    -6.0290     1.5760 hc         1 ERD       0.083700
     24 H11          1.9650    -5.4760    -0.9950 h1         1 ERD       0.059700
     25 H15          1.9370    -7.3380    -2.4330 ha         1 ERD       0.120000
     26 H16          0.7560    -9.2530    -3.4900 ha         1 ERD       0.135000
     27 HO24        -2.5540   -10.1240    -2.4180 ho         1 ERD       0.484000
     28 HO23        -3.2200    -8.0140    -0.1600 ho         1 ERD       0.477000
     29 H19         -1.4890    -6.6310     0.1130 ha         1 ERD       0.122000
     30 H5          -0.8150    -2.1620    -0.9770 ha         1 ERD       0.150000
     31 HO29        -0.0450     0.8680     0.7480 ho         1 ERD       0.472000
     32 H1           1.3890    -0.0860     2.0710 ha         1 ERD       0.119000
     33 HO30         2.7130    -1.2440     3.2550 ho         1 ERD       0.467000
@<TRIPOS>BOND
     1     1     2 2   
     2     2     3 1   
     3     2    15 1   
     4     3     4 1   
     5     3    22 1   
     6     3    23 1   
     7     4     5 1   
     8     4    13 1   
     9     4    24 1   
    10     5     6 ar  
    11     5    12 ar  
    12     6     7 ar  
    13     6    25 1   
    14     7     8 ar  
    15     7    26 1   
    16     8     9 1   
    17     8    10 ar  
    18     9    27 1   
    19    10    11 1   
    20    10    12 ar  
    21    11    28 1   
    22    12    29 1   
    23    13    14 1   
    24    14    15 ar  
    25    14    16 ar  
    26    15    20 ar  
    27    16    17 ar  
    28    16    30 1   
    29    17    18 1   
    30    17    19 ar  
    31    18    31 1   
    32    19    20 ar  
    33    19    32 1   
    34    20    21 1   
    35    21    33 1   
@<TRIPOS>SUBSTRUCTURE
     1 ERD         1 TEMP              0 ****  ****    0 ROOT
