@<TRIPOS>MOLECULE
ERD
   33    35     1     0     0
SMALL
bcc


@<TRIPOS>ATOM
      1 O13          2.8640    -4.8750     2.5460 o          1 ERD      -0.510100
      2 C9           2.0140    -4.7340     1.6870 c          1 ERD       0.602700
      3 C10          1.3880    -5.9380     1.0220 c6         1 ERD      -0.217400
      4 C11          0.9680    -5.6280    -0.4000 c6         1 ERD       0.212400
      5 C14          0.2660    -6.7720    -1.0700 ca         1 ERD      -0.095300
      6 C15          0.8910    -7.4760    -2.0860 ca         1 ERD      -0.103000
      7 C16          0.2650    -8.5680    -2.6780 ca         1 ERD      -0.144000
      8 C17         -0.9960    -8.9620    -2.2670 ca         1 ERD       0.135100
      9 O24         -1.5830   -10.0210    -2.8610 oh         1 ERD      -0.493100
     10 C18         -1.6350    -8.2480    -1.2410 ca         1 ERD       0.041100
     11 O23         -2.8660    -8.6880    -0.8940 oh         1 ERD      -0.519100
     12 C19         -1.0040    -7.1690    -0.6500 ca         1 ERD      -0.148000
     13 O12          0.0860    -4.5050    -0.4060 os         1 ERD      -0.314900
     14 C4           0.4950    -3.4020     0.2390 ca         1 ERD       0.251100
     15 C3           1.4820    -3.4450     1.2490 ca         1 ERD      -0.335600
     16 C5          -0.1190    -2.2230    -0.1450 ca         1 ERD      -0.261000
     17 C6           0.2500    -1.0380     0.4810 ca         1 ERD       0.246100
     18 O29         -0.3620     0.0810     0.0840 oh         1 ERD      -0.482100
     19 C1           1.2310    -1.0280     1.4700 ca         1 ERD      -0.392000
     20 C2           1.8410    -2.2150     1.8480 ca         1 ERD       0.273100
     21 O30          2.7750    -2.2190     2.8000 oh         1 ERD      -0.452100
     22 H101         2.0960    -6.7680     1.0310 hc         1 ERD       0.083700
     23 H102         0.5210    -6.2470     1.6170 hc         1 ERD       0.083700
     24 H11          1.8600    -5.3650    -0.9820 h1         1 ERD       0.059700
     25 H15          1.8750    -7.1800    -2.4270 ha         1 ERD       0.138000
     26 H16          0.7570    -9.1170    -3.4710 ha         1 ERD       0.153000
     27 HO24        -2.4550   -10.1830    -2.4820 ho         1 ERD       0.445000
     28 HO23        -3.2430    -8.1460    -0.1930 ho         1 ERD       0.438000
     29 H19         -1.5150    -6.6290     0.1410 ha         1 ERD       0.140000
     30 H5          -0.8660    -2.2260    -0.9270 ha         1 ERD       0.168000
     31 HO29        -0.0280     0.8470     0.5660 ho         1 ERD       0.433000
     32 H1           1.5180    -0.0970     1.9470 ha         1 ERD       0.137000
     33 HO30         2.8980    -1.3250     3.1430 ho         1 ERD       0.428000
@<TRIPOS>BOND
     1     1     2 2   
     2     2     3 1   
     3     2    15 1   
     4     3     4 1   
     5     3    22 1   
     6     3    23 1   
     7     4     5 1   
     8     4    13 1   
     9     4    24 1   
    10     5     6 ar  
    11     5    12 ar  
    12     6     7 ar  
    13     6    25 1   
    14     7     8 ar  
    15     7    26 1   
    16     8     9 1   
    17     8    10 ar  
    18     9    27 1   
    19    10    11 1   
    20    10    12 ar  
    21    11    28 1   
    22    12    29 1   
    23    13    14 1   
    24    14    15 ar  
    25    14    16 ar  
    26    15    20 ar  
    27    16    17 ar  
    28    16    30 1   
    29    17    18 1   
    30    17    19 ar  
    31    18    31 1   
    32    19    20 ar  
    33    19    32 1   
    34    20    21 1   
    35    21    33 1   
@<TRIPOS>SUBSTRUCTURE
     1 ERD         1 TEMP              0 ****  ****    0 ROOT
