@<TRIPOS>MOLECULE
ERE
   26    26     1     0     0
SMALL
No Charge or Current Charge


@<TRIPOS>ATOM
      1 C1          22.3270     9.3860    -6.4550 c6         1 ERE       0.387300
      2 C2          20.8840     9.8720    -6.1430 c6         1 ERE      -0.092400
      3 C3          20.7220    10.5060    -4.7270 c6         1 ERE       0.191200
      4 C4          21.8650    11.5700    -4.5110 c6         1 ERE       0.108300
      5 C5          23.2620    10.9250    -4.7950 c6         1 ERE       0.148300
      6 O5          23.2910    10.4070    -6.1480 os         1 ERE      -0.490000
      7 C3A         20.6940     9.4210    -3.5990 c3         1 ERE      -0.071100
      8 N3          19.4100    11.1920    -4.6600 n8         1 ERE      -0.993200
      9 O4          21.7890    12.1700    -3.1960 oh         1 ERE      -0.716000
     10 C5A         24.4320    11.9380    -4.7000 c3         1 ERE      -0.094100
     11 O1          22.6860     8.2230    -5.7250 oh         1 ERE      -0.674000
     12 H1          22.3880     9.1580    -7.5310 h2         1 ERE       0.058700
     13 H21         20.6130    10.6110    -6.9090 hc         1 ERE       0.064200
     14 H22         20.1810     9.0380    -6.2730 hc         1 ERE       0.064200
     15 HO1         23.6380     8.0960    -5.9190 ho         1 ERE       0.452000
     16 H4          21.7240    12.3600    -5.2640 h1         1 ERE       0.030700
     17 H31         20.4240     9.8560    -2.6290 hc         1 ERE       0.045700
     18 H32         19.9560     8.6390    -3.8180 hc         1 ERE       0.045700
     19 H33         21.6600     8.9260    -3.4610 hc         1 ERE       0.045700
     20 HN31        19.5010    11.9080    -3.9290 hn         1 ERE       0.397000
     21 HN32        19.2850    11.7450    -5.5130 hn         1 ERE       0.397000
     22 H5          23.4600    10.1090    -4.0850 h1         1 ERE       0.060700
     23 HO4         22.3690    12.9660    -3.2050 ho         1 ERE       0.504000
     24 H51         25.3810    11.4670    -4.9830 hc         1 ERE       0.043700
     25 H52         24.2720    12.7970    -5.3630 hc         1 ERE       0.043700
     26 H53         24.5500    12.3170    -3.6780 hc         1 ERE       0.043700
@<TRIPOS>BOND
     1     1     2 1   
     2     1     6 1   
     3     1    11 1   
     4     1    12 1   
     5     2     3 1   
     6     2    13 1   
     7     2    14 1   
     8     3     4 1   
     9     3     7 1   
    10     3     8 1   
    11     4     5 1   
    12     4     9 1   
    13     4    16 1   
    14     5     6 1   
    15     5    10 1   
    16     5    22 1   
    17     7    17 1   
    18     7    18 1   
    19     7    19 1   
    20     8    20 1   
    21     8    21 1   
    22     9    23 1   
    23    10    24 1   
    24    10    25 1   
    25    10    26 1   
    26    11    15 1   
@<TRIPOS>SUBSTRUCTURE
     1 ERE         1 TEMP              0 ****  ****    0 ROOT
