@<TRIPOS>MOLECULE
ERE
   26    26     1     0     0
SMALL
bcc


@<TRIPOS>ATOM
      1 C1          22.3600     9.4060    -6.4060 c6         1 ERE       0.340900
      2 C2          20.9480     9.8860    -6.1050 c6         1 ERE      -0.092400
      3 C3          20.7560    10.5260    -4.7240 c6         1 ERE       0.191200
      4 C4          21.8940    11.5490    -4.5430 c6         1 ERE       0.085100
      5 C5          23.2730    10.9300    -4.8070 c6         1 ERE       0.125100
      6 O5          23.3130    10.3960    -6.1230 os         1 ERE      -0.443600
      7 C3A         20.7380     9.4840    -3.6040 c3         1 ERE      -0.071100
      8 N3          19.4390    11.1600    -4.7280 n8         1 ERE      -0.882800
      9 O4          21.8140    12.0940    -3.2460 oh         1 ERE      -0.593800
     10 C5A         24.3940    11.9470    -4.7140 c3         1 ERE      -0.094100
     11 O1          22.6110     8.2190    -5.7150 oh         1 ERE      -0.611800
     12 H1          22.4560     9.2440    -7.4870 h2         1 ERE       0.058700
     13 H21         20.7060    10.6370    -6.8640 hc         1 ERE       0.064200
     14 H22         20.2370     9.0680    -6.2430 hc         1 ERE       0.064200
     15 HO1         23.4520     7.8590    -6.0190 ho         1 ERE       0.413000
     16 H4          21.7410    12.3320    -5.3050 h1         1 ERE       0.030700
     17 H31         20.4700     9.9410    -2.6510 hc         1 ERE       0.045700
     18 H32         19.9880     8.7240    -3.8280 hc         1 ERE       0.045700
     19 H33         21.6920     8.9790    -3.4760 hc         1 ERE       0.045700
     20 HN31        19.2910    11.6280    -3.8410 hn         1 ERE       0.341800
     21 HN32        19.4130    11.8920    -5.4300 hn         1 ERE       0.341800
     22 H5          23.4610    10.1410    -4.0660 h1         1 ERE       0.060700
     23 HO4         22.2580    12.9460    -3.2390 ho         1 ERE       0.405000
     24 H51         25.3520    11.4870    -4.9560 hc         1 ERE       0.043700
     25 H52         24.2310    12.7820    -5.3980 hc         1 ERE       0.043700
     26 H53         24.4770    12.3450    -3.7030 hc         1 ERE       0.043700
@<TRIPOS>BOND
     1     1     2 1   
     2     1     6 1   
     3     1    11 1   
     4     1    12 1   
     5     2     3 1   
     6     2    13 1   
     7     2    14 1   
     8     3     4 1   
     9     3     7 1   
    10     3     8 1   
    11     4     5 1   
    12     4     9 1   
    13     4    16 1   
    14     5     6 1   
    15     5    10 1   
    16     5    22 1   
    17     7    17 1   
    18     7    18 1   
    19     7    19 1   
    20     8    20 1   
    21     8    21 1   
    22     9    23 1   
    23    10    24 1   
    24    10    25 1   
    25    10    26 1   
    26    11    15 1   
@<TRIPOS>SUBSTRUCTURE
     1 ERE         1 TEMP              0 ****  ****    0 ROOT
