@<TRIPOS>MOLECULE
ERG
   73    76     1     0     0
SMALL
abcg2


@<TRIPOS>ATOM
      1 C1           1.2520    -0.7730    -4.9110 c6         1 ERG      -0.067400
      2 C2           1.1970    -0.4550    -6.3990 c6         1 ERG      -0.072400
      3 C3          -0.2290    -0.5600    -6.9030 c6         1 ERG       0.173300
      4 C4          -1.1030     0.4350    -6.1470 c6         1 ERG      -0.071200
      5 C5          -1.0230     0.2680    -4.6560 c2         1 ERG      -0.104400
      6 C6          -2.1010     0.4290    -3.8790 ce         1 ERG      -0.181000
      7 C7          -2.0290     0.3700    -2.4300 ce         1 ERG      -0.197000
      8 C8          -0.9350    -0.0840    -1.8080 c2         1 ERG      -0.079400
      9 C9           0.2420    -0.5680    -2.6290 c6         1 ERG      -0.014500
     10 C10          0.3500     0.1090    -4.0260 c6         1 ERG       0.003200
     11 C11          1.5810    -0.5240    -1.8680 c6         1 ERG      -0.070400
     12 C12          1.5070    -0.8790    -0.3830 c6         1 ERG      -0.061400
     13 C13          0.4420    -0.0490     0.3290 c5         1 ERG      -0.037000
     14 C14         -0.8940    -0.3950    -0.3490 c5         1 ERG      -0.030500
     15 C15         -1.9570     0.1780     0.5770 c5         1 ERG      -0.070400
     16 C16         -1.3460     0.0050     1.9810 c5         1 ERG      -0.075400
     17 C17          0.1240    -0.4490     1.7870 c5         1 ERG      -0.050700
     18 C18          0.7350     1.4510     0.2330 c3         1 ERG      -0.077100
     19 C19          0.9290     1.5330    -3.9290 c3         1 ERG      -0.082100
     20 C20          1.0320     0.0800     2.9090 c3         1 ERG      -0.016500
     21 C21          2.5050    -0.3010     2.7410 c3         1 ERG      -0.082100
     22 C22          0.5370    -0.4340     4.2310 c2         1 ERG      -0.220200
     23 C23          0.0080     0.3080     5.1970 c2         1 ERG      -0.214200
     24 C24         -0.5270    -0.2060     6.5010 c3         1 ERG      -0.023500
     25 C25          0.1170     0.5320     7.6910 c3         1 ERG      -0.054700
     26 C26         -0.4200     0.0430     9.0340 c3         1 ERG      -0.087100
     27 C27          1.6370     0.4000     7.6690 c3         1 ERG      -0.087100
     28 C28         -2.0530    -0.0780     6.4900 c3         1 ERG      -0.083100
     29 O1          -0.2360    -0.3140    -8.2940 oh         1 ERG      -0.660000
     30 H11          0.9530    -1.8190    -4.7770 hc         1 ERG       0.042200
     31 H12          2.2850    -0.7040    -4.5650 hc         1 ERG       0.042200
     32 H21          1.8410    -1.1530    -6.9400 hc         1 ERG       0.053200
     33 H22A         1.5810     0.5510    -6.6010 hc         1 ERG       0.053200
     34 H3          -0.5950    -1.5780    -6.6920 h1         1 ERG       0.031700
     35 H41         -2.1460     0.3570    -6.4690 hc         1 ERG       0.051200
     36 H42         -0.7650     1.4420    -6.4230 hc         1 ERG       0.051200
     37 H6          -3.0660     0.6280    -4.3330 ha         1 ERG       0.174000
     38 H7          -2.9140     0.6360    -1.8640 ha         1 ERG       0.178000
     39 H9           0.0180    -1.6320    -2.8170 hc         1 ERG       0.052700
     40 H111         2.2920    -1.1920    -2.3570 hc         1 ERG       0.041200
     41 H112         2.0150     0.4730    -1.9440 hc         1 ERG       0.041200
     42 H121         1.2680    -1.9410    -0.2550 hc         1 ERG       0.040700
     43 H122         2.4990    -0.7310     0.0460 hc         1 ERG       0.040700
     44 H14         -0.9690    -1.4940    -0.2810 hc         1 ERG       0.053700
     45 H151        -2.9180    -0.3290     0.4720 hc         1 ERG       0.044200
     46 H152        -2.1310     1.2340     0.3540 hc         1 ERG       0.044200
     47 H161        -1.8990    -0.7180     2.5810 hc         1 ERG       0.043200
     48 H162        -1.3800     0.9440     2.5380 hc         1 ERG       0.043200
     49 H17          0.1610    -1.5470     1.8310 hc         1 ERG       0.045700
     50 H181         0.6080     1.8290    -0.7830 hc         1 ERG       0.034033
     51 H182         0.0720     2.0340     0.8730 hc         1 ERG       0.034033
     52 H183         1.7580     1.6760     0.5380 hc         1 ERG       0.034033
     53 H191         0.8210     2.0730    -4.8700 hc         1 ERG       0.036700
     54 H192         0.4090     2.1120    -3.1630 hc         1 ERG       0.036700
     55 H193         1.9920     1.5320    -3.6880 hc         1 ERG       0.036700
     56 H20          0.9550     1.1740     2.9220 hc         1 ERG       0.049700
     57 H211         2.6200    -1.3790     2.6020 hc         1 ERG       0.034033
     58 H212         2.9620     0.1960     1.8850 hc         1 ERG       0.034033
     59 H213         3.0760    -0.0170     3.6260 hc         1 ERG       0.034033
     60 H22          0.6300    -1.5100     4.3810 ha         1 ERG       0.165000
     61 H23         -0.0910     1.3830     5.0400 ha         1 ERG       0.164000
     62 H24         -0.2690    -1.2690     6.5890 hc         1 ERG       0.048700
     63 H25         -0.1350     1.5960     7.5910 hc         1 ERG       0.044700
     64 H261         0.0900     0.5450     9.8580 hc         1 ERG       0.032533
     65 H262        -1.4870     0.2290     9.1540 hc         1 ERG       0.032533
     66 H263        -0.2530    -1.0310     9.1510 hc         1 ERG       0.032533
     67 H271         1.9370    -0.6470     7.7640 hc         1 ERG       0.032533
     68 H272         2.0690     0.7800     6.7430 hc         1 ERG       0.032533
     69 H273         2.0870     0.9480     8.4990 hc         1 ERG       0.032533
     70 H281        -2.3570     0.9700     6.4310 hc         1 ERG       0.033367
     71 H282        -2.4720    -0.5920     5.6240 hc         1 ERG       0.033367
     72 H283        -2.5110    -0.5060     7.3820 hc         1 ERG       0.033367
     73 HO1         -1.1370    -0.4230    -8.6140 ho         1 ERG       0.441000
@<TRIPOS>BOND
     1     1     2 1   
     2     1    10 1   
     3     1    30 1   
     4     1    31 1   
     5     2     3 1   
     6     2    32 1   
     7     2    33 1   
     8     3     4 1   
     9     3    29 1   
    10     3    34 1   
    11     4     5 1   
    12     4    35 1   
    13     4    36 1   
    14     5     6 2   
    15     5    10 1   
    16     6     7 1   
    17     6    37 1   
    18     7     8 2   
    19     7    38 1   
    20     8     9 1   
    21     8    14 1   
    22     9    10 1   
    23     9    11 1   
    24     9    39 1   
    25    10    19 1   
    26    11    12 1   
    27    11    40 1   
    28    11    41 1   
    29    12    13 1   
    30    12    42 1   
    31    12    43 1   
    32    13    14 1   
    33    13    17 1   
    34    13    18 1   
    35    14    15 1   
    36    14    44 1   
    37    15    16 1   
    38    15    45 1   
    39    15    46 1   
    40    16    17 1   
    41    16    47 1   
    42    16    48 1   
    43    17    20 1   
    44    17    49 1   
    45    18    50 1   
    46    18    51 1   
    47    18    52 1   
    48    19    53 1   
    49    19    54 1   
    50    19    55 1   
    51    20    21 1   
    52    20    22 1   
    53    20    56 1   
    54    21    57 1   
    55    21    58 1   
    56    21    59 1   
    57    22    23 2   
    58    22    60 1   
    59    23    24 1   
    60    23    61 1   
    61    24    25 1   
    62    24    28 1   
    63    24    62 1   
    64    25    26 1   
    65    25    27 1   
    66    25    63 1   
    67    26    64 1   
    68    26    65 1   
    69    26    66 1   
    70    27    67 1   
    71    27    68 1   
    72    27    69 1   
    73    28    70 1   
    74    28    71 1   
    75    28    72 1   
    76    29    73 1   
@<TRIPOS>SUBSTRUCTURE
     1 ERG         1 TEMP              0 ****  ****    0 ROOT
