@<TRIPOS>MOLECULE
ERG
   73    76     1     0     0
SMALL
No Charge or Current Charge


@<TRIPOS>ATOM
      1 C1           1.4060    -0.6240    -5.0190 c6         1 ERG      -0.067400
      2 C2           1.2900    -0.2610    -6.5170 c6         1 ERG      -0.072400
      3 C3          -0.1290    -0.5750    -7.0290 c6         1 ERG       0.173300
      4 C4          -1.1770     0.2390    -6.2370 c6         1 ERG      -0.071200
      5 C5          -1.0470     0.0940    -4.7170 c2         1 ERG      -0.104400
      6 C6          -2.1470     0.0870    -3.9310 ce         1 ERG      -0.181000
      7 C7          -2.0590     0.0450    -2.4720 ce         1 ERG      -0.197000
      8 C8          -0.8830    -0.2240    -1.8600 c2         1 ERG      -0.079400
      9 C9           0.3660    -0.5790    -2.6790 c6         1 ERG      -0.014500
     10 C10          0.3750     0.1230    -4.1040 c6         1 ERG       0.003200
     11 C11          1.7100    -0.4330    -1.8790 c6         1 ERG      -0.070400
     12 C12          1.5910    -0.7850    -0.3700 c6         1 ERG      -0.061400
     13 C13          0.4190    -0.0080     0.3120 c5         1 ERG      -0.037000
     14 C14         -0.9050    -0.5070    -0.3500 c5         1 ERG      -0.030500
     15 C15         -1.9880     0.2230     0.4900 c5         1 ERG      -0.070400
     16 C16         -1.4190     0.0980     1.9420 c5         1 ERG      -0.075400
     17 C17          0.0580    -0.4370     1.7880 c5         1 ERG      -0.050700
     18 C18          0.6910     1.5350     0.1950 c3         1 ERG      -0.077100
     19 C19          0.7420     1.6430    -4.0000 c3         1 ERG      -0.082100
     20 C20          0.9790     0.0140     2.9700 c3         1 ERG      -0.016500
     21 C21          2.4460    -0.4590     2.8840 c3         1 ERG      -0.082100
     22 C22          0.3980    -0.4300     4.3000 c2         1 ERG      -0.220200
     23 C23         -0.0360     0.3900     5.2710 c2         1 ERG      -0.214200
     24 C24         -0.6210    -0.0560     6.5990 c3         1 ERG      -0.023500
     25 C25          0.2430     0.4440     7.8010 c3         1 ERG      -0.054700
     26 C26         -0.3170    -0.0010     9.1760 c3         1 ERG      -0.087100
     27 C27          1.7250     0.0100     7.6700 c3         1 ERG      -0.087100
     28 C28         -2.1010     0.3880     6.6710 c3         1 ERG      -0.083100
     29 O1          -0.2220    -0.2750    -8.4250 oh         1 ERG      -0.660000
     30 H11          1.2690    -1.7100    -4.9220 hc         1 ERG       0.042200
     31 H12          2.4310    -0.4210    -4.6800 hc         1 ERG       0.042200
     32 H21          2.0270    -0.8390    -7.0900 hc         1 ERG       0.053200
     33 H22A         1.5320     0.7980    -6.6780 hc         1 ERG       0.053200
     34 H3          -0.3260    -1.6450    -6.8670 h1         1 ERG       0.031700
     35 H41         -2.1840    -0.0630    -6.5560 hc         1 ERG       0.051200
     36 H42         -1.0860     1.3020    -6.4980 hc         1 ERG       0.051200
     37 H6          -3.1470     0.1420    -4.3660 ha         1 ERG       0.174000
     38 H7          -2.9930     0.1680    -1.9230 ha         1 ERG       0.178000
     39 H9           0.2540    -1.6570    -2.8600 hc         1 ERG       0.052700
     40 H111         2.4770    -1.0760    -2.3320 hc         1 ERG       0.041200
     41 H112         2.1100     0.5830    -1.9550 hc         1 ERG       0.041200
     42 H121         1.4360    -1.8680    -0.2590 hc         1 ERG       0.040700
     43 H122         2.5490    -0.5640     0.1110 hc         1 ERG       0.040700
     44 H14         -1.0190    -1.5920    -0.2220 hc         1 ERG       0.053700
     45 H151        -2.9720    -0.2500     0.3990 hc         1 ERG       0.044200
     46 H152        -2.1060     1.2720     0.1940 hc         1 ERG       0.044200
     47 H161        -2.0200    -0.5870     2.5510 hc         1 ERG       0.043200
     48 H162        -1.4530     1.0690     2.4490 hc         1 ERG       0.043200
     49 H17          0.0430    -1.5330     1.8470 hc         1 ERG       0.045700
     50 H181         0.5820     1.8990    -0.8310 hc         1 ERG       0.034033
     51 H182         0.0120     2.1350     0.8110 hc         1 ERG       0.034033
     52 H183         1.7070     1.7790     0.5250 hc         1 ERG       0.034033
     53 H191         0.5750     2.1680    -4.9470 hc         1 ERG       0.036700
     54 H192         0.1300     2.1490    -3.2440 hc         1 ERG       0.036700
     55 H193         1.7950     1.8030    -3.7430 hc         1 ERG       0.036700
     56 H20          1.0140     1.1110     2.9700 hc         1 ERG       0.049700
     57 H211         2.5040    -1.5270     2.6430 hc         1 ERG       0.034033
     58 H212         2.9980     0.1110     2.1300 hc         1 ERG       0.034033
     59 H213         2.9570    -0.2970     3.8410 hc         1 ERG       0.034033
     60 H22          0.3480    -1.5120     4.4300 ha         1 ERG       0.165000
     61 H23          0.0130     1.4730     5.1410 ha         1 ERG       0.164000
     62 H24         -0.6190    -1.1540     6.6300 hc         1 ERG       0.048700
     63 H25          0.2280     1.5410     7.7870 hc         1 ERG       0.044700
     64 H261         0.3470     0.3200     9.9870 hc         1 ERG       0.032533
     65 H262        -1.3010     0.4420     9.3680 hc         1 ERG       0.032533
     66 H263        -0.4120    -1.0930     9.2240 hc         1 ERG       0.032533
     67 H271         1.8100    -1.0820     7.6310 hc         1 ERG       0.032533
     68 H272         2.1830     0.4230     6.7630 hc         1 ERG       0.032533
     69 H273         2.3120     0.3680     8.5250 hc         1 ERG       0.032533
     70 H281        -2.1780     1.4790     6.7530 hc         1 ERG       0.033367
     71 H282        -2.6380     0.0750     5.7680 hc         1 ERG       0.033367
     72 H283        -2.6130    -0.0630     7.5290 hc         1 ERG       0.033367
     73 HO1         -1.1180    -0.5560    -8.7140 ho         1 ERG       0.441000
@<TRIPOS>BOND
     1     1     2 1   
     2     1    10 1   
     3     1    30 1   
     4     1    31 1   
     5     2     3 1   
     6     2    32 1   
     7     2    33 1   
     8     3     4 1   
     9     3    29 1   
    10     3    34 1   
    11     4     5 1   
    12     4    35 1   
    13     4    36 1   
    14     5     6 2   
    15     5    10 1   
    16     6     7 1   
    17     6    37 1   
    18     7     8 2   
    19     7    38 1   
    20     8     9 1   
    21     8    14 1   
    22     9    10 1   
    23     9    11 1   
    24     9    39 1   
    25    10    19 1   
    26    11    12 1   
    27    11    40 1   
    28    11    41 1   
    29    12    13 1   
    30    12    42 1   
    31    12    43 1   
    32    13    14 1   
    33    13    17 1   
    34    13    18 1   
    35    14    15 1   
    36    14    44 1   
    37    15    16 1   
    38    15    45 1   
    39    15    46 1   
    40    16    17 1   
    41    16    47 1   
    42    16    48 1   
    43    17    20 1   
    44    17    49 1   
    45    18    50 1   
    46    18    51 1   
    47    18    52 1   
    48    19    53 1   
    49    19    54 1   
    50    19    55 1   
    51    20    21 1   
    52    20    22 1   
    53    20    56 1   
    54    21    57 1   
    55    21    58 1   
    56    21    59 1   
    57    22    23 2   
    58    22    60 1   
    59    23    24 1   
    60    23    61 1   
    61    24    25 1   
    62    24    28 1   
    63    24    62 1   
    64    25    26 1   
    65    25    27 1   
    66    25    63 1   
    67    26    64 1   
    68    26    65 1   
    69    26    66 1   
    70    27    67 1   
    71    27    68 1   
    72    27    69 1   
    73    28    70 1   
    74    28    71 1   
    75    28    72 1   
    76    29    73 1   
@<TRIPOS>SUBSTRUCTURE
     1 ERG         1 TEMP              0 ****  ****    0 ROOT
