@<TRIPOS>MOLECULE
ERH
   19    19     1     0     0
SMALL
No Charge or Current Charge


@<TRIPOS>ATOM
      1 O01          0.1330     2.7610    -0.1890 oh         1 ERH      -0.536100
      2 C02          1.2780    -0.7280    -0.0190 ca         1 ERH      -0.034300
      3 C03         -1.1670    -0.6800    -0.0500 ca         1 ERH      -0.034300
      4 C04          0.0420    -1.4000    -0.0030 ca         1 ERH      -0.148000
      5 C05          1.2980     0.6780    -0.0840 ca         1 ERH      -0.180500
      6 C06         -1.1330     0.7260    -0.1100 ca         1 ERH      -0.180500
      7 C07          0.0980     1.4000    -0.1280 ca         1 ERH       0.143100
      8 C08          2.5800    -1.5130     0.0270 c3         1 ERH      -0.048800
      9 C09         -2.4980    -1.4150    -0.0280 c3         1 ERH      -0.048800
     10 H01         -0.7890     3.0940    -0.2120 ho         1 ERH       0.463000
     11 H04          0.0200    -2.4870     0.0450 ha         1 ERH       0.112000
     12 H05          2.2460     1.2090    -0.1000 ha         1 ERH       0.118000
     13 H081         2.9070    -1.7850    -0.9830 hc         1 ERH       0.043200
     14 H082         3.3830    -0.9310     0.4950 hc         1 ERH       0.043200
     15 H083         2.4670    -2.4390     0.6030 hc         1 ERH       0.043200
     16 H06         -2.0650     1.2860    -0.1420 ha         1 ERH       0.118000
     17 H091        -2.8530    -1.5480     1.0000 hc         1 ERH       0.043200
     18 H092        -3.2690    -0.8630    -0.5800 hc         1 ERH       0.043200
     19 H093        -2.4150    -2.4080    -0.4860 hc         1 ERH       0.043200
@<TRIPOS>BOND
     1     1     7 1   
     2     1    10 1   
     3     2     4 ar  
     4     2     5 ar  
     5     2     8 1   
     6     3     4 ar  
     7     3     6 ar  
     8     3     9 1   
     9     4    11 1   
    10     5     7 ar  
    11     5    12 1   
    12     6     7 ar  
    13     6    16 1   
    14     8    13 1   
    15     8    14 1   
    16     8    15 1   
    17     9    17 1   
    18     9    18 1   
    19     9    19 1   
@<TRIPOS>SUBSTRUCTURE
     1 ERH         1 TEMP              0 ****  ****    0 ROOT
