@<TRIPOS>MOLECULE
ERH
   19    19     1     0     0
SMALL
bcc


@<TRIPOS>ATOM
      1 O01          0.1600     2.7220    -0.1670 oh         1 ERH      -0.497100
      2 C02          1.2640    -0.7250    -0.0210 ca         1 ERH      -0.034300
      3 C03         -1.1620    -0.6900    -0.0450 ca         1 ERH      -0.034300
      4 C04          0.0390    -1.3910    -0.0070 ca         1 ERH      -0.166000
      5 C05          1.2790     0.6630    -0.0730 ca         1 ERH      -0.198500
      6 C06         -1.1330     0.7010    -0.1010 ca         1 ERH      -0.198500
      7 C07          0.0830     1.3750    -0.1150 ca         1 ERH       0.143100
      8 C08          2.5530    -1.4940    -0.0090 c3         1 ERH      -0.048800
      9 C09         -2.4780    -1.4130    -0.0080 c3         1 ERH      -0.048800
     10 H01         -0.7240     3.1040    -0.1950 ho         1 ERH       0.424000
     11 H04          0.0210    -2.4740     0.0350 ha         1 ERH       0.130000
     12 H05          2.2190     1.2030    -0.0830 ha         1 ERH       0.136000
     13 H081         2.9680    -1.5750    -1.0160 hc         1 ERH       0.043200
     14 H082         3.3060    -1.0070     0.6100 hc         1 ERH       0.043200
     15 H083         2.4110    -2.5070     0.3660 hc         1 ERH       0.043200
     16 H06         -2.0630     1.2610    -0.1330 ha         1 ERH       0.136000
     17 H091        -2.9870    -1.2520     0.9440 hc         1 ERH       0.043200
     18 H092        -3.1480    -1.0600    -0.7920 hc         1 ERH       0.043200
     19 H093        -2.3460    -2.4860    -0.1340 hc         1 ERH       0.043200
@<TRIPOS>BOND
     1     1     7 1   
     2     1    10 1   
     3     2     4 ar  
     4     2     5 ar  
     5     2     8 1   
     6     3     4 ar  
     7     3     6 ar  
     8     3     9 1   
     9     4    11 1   
    10     5     7 ar  
    11     5    12 1   
    12     6     7 ar  
    13     6    16 1   
    14     8    13 1   
    15     8    14 1   
    16     8    15 1   
    17     9    17 1   
    18     9    18 1   
    19     9    19 1   
@<TRIPOS>SUBSTRUCTURE
     1 ERH         1 TEMP              0 ****  ****    0 ROOT
