@<TRIPOS>MOLECULE
ERI
   30    30     1     0     0
SMALL
bcc


@<TRIPOS>ATOM
      1 O1           7.2750     8.3440    -3.6300 oh         1 ERI      -0.616800
      2 C1           5.9260     8.1120    -3.3650 c6         1 ERI       0.341900
      3 C2           5.1730     9.4340    -3.3710 c6         1 ERI      -0.095400
      4 C3           4.9290    10.0190    -4.7650 c6         1 ERI       0.165800
      5 O3           3.9490    11.0290    -4.5880 oh         1 ERI      -0.597800
      6 CC3          6.1860    10.6320    -5.3780 c3         1 ERI      -0.112100
      7 C4           4.3420     8.8820    -5.6150 c6         1 ERI       0.087100
      8 O4           4.2030     9.3410    -6.9590 os         1 ERI      -0.437900
      9 CME          3.0940     9.9440    -8.9230 c3         1 ERI      -0.157100
     10 CO4          3.0060     9.3410    -7.5530 c          1 ERI       0.645100
     11 OC4          2.0020     8.9110    -7.0490 o          1 ERI      -0.522000
     12 C5           5.2150     7.6250    -5.6020 c6         1 ERI       0.148100
     13 O5           5.3590     7.1890    -4.2600 os         1 ERI      -0.439600
     14 C6           4.5960     6.4780    -6.3780 c3         1 ERI      -0.090100
     15 HO1          7.7660     7.5280    -3.4860 ho         1 ERI       0.416000
     16 H1           5.8040     7.6390    -2.3840 h2         1 ERI       0.064700
     17 H21          4.2000     9.2510    -2.9070 hc         1 ERI       0.073700
     18 H22          5.6920    10.1590    -2.7400 hc         1 ERI       0.073700
     19 HO3          3.9300    11.5820    -5.3770 ho         1 ERI       0.410000
     20 H31          5.9550    11.1480    -6.3120 hc         1 ERI       0.048700
     21 H32          6.6110    11.3640    -4.6890 hc         1 ERI       0.048700
     22 H33          6.9570     9.8960    -5.5900 hc         1 ERI       0.048700
     23 H4           3.3620     8.6250    -5.2030 h1         1 ERI       0.092700
     24 H41          2.1230     9.9260    -9.4100 hc         1 ERI       0.069367
     25 H42          3.4420    10.9760    -8.8610 hc         1 ERI       0.069367
     26 H43          3.8110     9.3990    -9.5360 hc         1 ERI       0.069367
     27 H5           6.1960     7.8520    -6.0400 h1         1 ERI       0.053700
     28 H61          5.2130     5.5840    -6.2860 hc         1 ERI       0.048033
     29 H62          3.5950     6.2440    -6.0140 hc         1 ERI       0.048033
     30 H63          4.5300     6.7150    -7.4390 hc         1 ERI       0.048033
@<TRIPOS>BOND
     1     1     2 1   
     2     1    15 1   
     3     2     3 1   
     4     2    13 1   
     5     2    16 1   
     6     3     4 1   
     7     3    17 1   
     8     3    18 1   
     9     4     5 1   
    10     4     6 1   
    11     4     7 1   
    12     5    19 1   
    13     6    20 1   
    14     6    21 1   
    15     6    22 1   
    16     7     8 1   
    17     7    12 1   
    18     7    23 1   
    19     8    10 1   
    20     9    10 1   
    21     9    24 1   
    22     9    25 1   
    23     9    26 1   
    24    10    11 2   
    25    12    13 1   
    26    12    14 1   
    27    12    27 1   
    28    14    28 1   
    29    14    29 1   
    30    14    30 1   
@<TRIPOS>SUBSTRUCTURE
     1 ERI         1 TEMP              0 ****  ****    0 ROOT
