@<TRIPOS>MOLECULE
ERI
   30    30     1     0     0
SMALL
No Charge or Current Charge


@<TRIPOS>ATOM
      1 O1           7.2980     8.1700    -3.6620 oh         1 ERI      -0.679000
      2 C1           5.9310     8.0880    -3.2930 c6         1 ERI       0.388300
      3 C2           5.2370     9.4760    -3.2570 c6         1 ERI      -0.095400
      4 C3           4.9800    10.0930    -4.6650 c6         1 ERI       0.189000
      5 O3           4.0830    11.2000    -4.5230 oh         1 ERI      -0.660000
      6 CC3          6.2800    10.6880    -5.2950 c3         1 ERI      -0.112100
      7 C4           4.3100     9.0170    -5.5850 c6         1 ERI       0.110300
      8 O4           4.0790     9.5630    -6.9130 os         1 ERI      -0.461100
      9 CME          3.0180     9.8570    -9.0360 c3         1 ERI      -0.157100
     10 CO4          3.0120     9.1700    -7.6790 c          1 ERI       0.596100
     11 OC4          2.1220     8.4230    -7.3010 o          1 ERI      -0.473000
     12 C5           5.1630     7.7070    -5.5870 c6         1 ERI       0.171300
     13 O5           5.2820     7.2130    -4.2300 os         1 ERI      -0.486000
     14 C6           4.5480     6.5450    -6.4060 c3         1 ERI      -0.090100
     15 HO1          7.5870     7.2380    -3.7510 ho         1 ERI       0.455000
     16 H1           5.8620     7.6410    -2.2870 h2         1 ERI       0.064700
     17 H21          4.2780     9.3560    -2.7370 hc         1 ERI       0.073700
     18 H22          5.8250    10.1670    -2.6390 hc         1 ERI       0.073700
     19 HO3          3.8050    11.4340    -5.4350 ho         1 ERI       0.449000
     20 H31          6.0640    11.2290    -6.2250 hc         1 ERI       0.048700
     21 H32          6.7600    11.3990    -4.6130 hc         1 ERI       0.048700
     22 H33          7.0220     9.9230    -5.5420 hc         1 ERI       0.048700
     23 H4           3.3370     8.7760    -5.1320 h1         1 ERI       0.092700
     24 H41          2.1440     9.5990    -9.6440 hc         1 ERI       0.069367
     25 H42          3.1040    10.9380    -8.8850 hc         1 ERI       0.069367
     26 H43          3.9570     9.6180    -9.5470 hc         1 ERI       0.069367
     27 H5           6.1650     7.9060    -5.9930 h1         1 ERI       0.053700
     28 H61          5.1470     5.6330    -6.2980 hc         1 ERI       0.048033
     29 H62          3.5280     6.3170    -6.0740 hc         1 ERI       0.048033
     30 H63          4.5150     6.7850    -7.4750 hc         1 ERI       0.048033
@<TRIPOS>BOND
     1     1     2 1   
     2     1    15 1   
     3     2     3 1   
     4     2    13 1   
     5     2    16 1   
     6     3     4 1   
     7     3    17 1   
     8     3    18 1   
     9     4     5 1   
    10     4     6 1   
    11     4     7 1   
    12     5    19 1   
    13     6    20 1   
    14     6    21 1   
    15     6    22 1   
    16     7     8 1   
    17     7    12 1   
    18     7    23 1   
    19     8    10 1   
    20     9    10 1   
    21     9    24 1   
    22     9    25 1   
    23     9    26 1   
    24    10    11 2   
    25    12    13 1   
    26    12    14 1   
    27    12    27 1   
    28    14    28 1   
    29    14    29 1   
    30    14    30 1   
@<TRIPOS>SUBSTRUCTURE
     1 ERI         1 TEMP              0 ****  ****    0 ROOT
