@<TRIPOS>MOLECULE
ERJ
   37    40     1     0     0
SMALL
No Charge or Current Charge


@<TRIPOS>ATOM
      1 N1          -2.4850     1.6660    -1.1930 nb         1 ERJ      -0.213000
      2 N3          -0.1020     2.0200    -1.0210 nb         1 ERJ      -0.165000
      3 C4          -0.0290     0.9470    -0.2130 ca         1 ERJ       0.105500
      4 C5          -1.1360     0.2040     0.1380 ca         1 ERJ      -0.021600
      5 C6          -2.4090     0.5840    -0.3770 ca         1 ERJ       0.270500
      6 C8           0.5440    -0.7260     1.1370 cc         1 ERJ       0.431700
      7 C20         -3.8360    -1.2300     0.7100 cc         1 ERJ      -0.198000
      8 C22         -6.0200    -0.4750    -0.2470 cc         1 ERJ      -0.265000
      9 C1           2.4270     0.8190     0.3600 c5         1 ERJ       0.318300
     10 C19         -3.6940    -0.1150    -0.0920 cd         1 ERJ      -0.193500
     11 C2          -1.3370     2.3240    -1.4720 ca         1 ERJ       0.136900
     12 C10          3.3890     0.4440     1.5510 c5         1 ERJ       0.136300
     13 C23         -4.9550     0.2990    -0.6280 cd         1 ERJ      -0.082000
     14 C3           4.7500     0.3500     0.8080 c5         1 ERJ       0.101300
     15 C7           4.2850    -0.3690    -0.5010 c5         1 ERJ       0.126300
     16 C9           4.0310    -1.9000    -0.3360 c3         1 ERJ       0.140600
     17 N7          -0.7860    -0.8510     0.9870 nd         1 ERJ      -0.566100
     18 N9           1.0350     0.3640     0.4150 na         1 ERJ      -0.301300
     19 O2           3.4570     1.4340     2.5850 oh         1 ERJ      -0.666000
     20 O3           5.2960     1.6640     0.5730 oh         1 ERJ      -0.682000
     21 O4           3.0500     0.3100    -0.8470 os         1 ERJ      -0.423000
     22 O5           3.8210    -2.5310    -1.6100 oh         1 ERJ      -0.701000
     23 S21         -5.5060    -1.7750     0.8110 ss         1 ERJ       0.211000
     24 H1           1.1770    -1.3750     1.7300 h5         1 ERJ       0.078800
     25 H3          -7.0650    -0.3790    -0.5090 h4         1 ERJ       0.150000
     26 H4           2.3790     1.9130     0.2860 h2         1 ERJ       0.128700
     27 H5          -1.4170     3.1890    -2.1280 h5         1 ERJ       0.050100
     28 H6           3.1290    -0.5290     1.9860 h1         1 ERJ       0.045700
     29 H7          -5.0750     1.1560    -1.2860 ha         1 ERJ       0.152000
     30 H8           5.4680    -0.2660     1.3680 h1         1 ERJ       0.051700
     31 H9           5.0140    -0.2310    -1.3110 h1         1 ERJ       0.091700
     32 H10          4.9050    -2.3460     0.1570 h1         1 ERJ       0.023200
     33 H11          3.1640    -2.0660     0.3170 h1         1 ERJ       0.023200
     34 H12          4.1850     2.0340     2.2860 ho         1 ERJ       0.512000
     35 H13          6.1430     1.5530     0.0790 ho         1 ERJ       0.507000
     36 H14          3.6520    -3.4880    -1.4380 ho         1 ERJ       0.508000
     37 H2          -3.0920    -1.7880     1.2590 h4         1 ERJ       0.176000
@<TRIPOS>BOND
     1     1     5 ar  
     2     1    11 ar  
     3     2     3 ar  
     4     2    11 ar  
     5     3     4 ar  
     6     3    18 1   
     7     4     5 ar  
     8     4    17 1   
     9     5    10 1   
    10     6    17 2   
    11     6    18 1   
    12     6    24 1   
    13     7    10 2   
    14     7    23 1   
    15     7    37 1   
    16     8    13 2   
    17     8    23 1   
    18     8    25 1   
    19     9    12 1   
    20     9    18 1   
    21     9    21 1   
    22     9    26 1   
    23    10    13 1   
    24    11    27 1   
    25    12    14 1   
    26    12    19 1   
    27    12    28 1   
    28    13    29 1   
    29    14    15 1   
    30    14    20 1   
    31    14    30 1   
    32    15    16 1   
    33    15    21 1   
    34    15    31 1   
    35    16    22 1   
    36    16    32 1   
    37    16    33 1   
    38    19    34 1   
    39    20    35 1   
    40    22    36 1   
@<TRIPOS>SUBSTRUCTURE
     1 ERJ         1 TEMP              0 ****  ****    0 ROOT
