@<TRIPOS>MOLECULE
ERJ
   37    40     1     0     0
SMALL
bcc


@<TRIPOS>ATOM
      1 N1          -2.4650     1.9490    -0.2620 nb         1 ERJ      -0.739000
      2 N3          -0.1160     2.2610    -0.4810 nb         1 ERJ      -0.691000
      3 C4          -0.0220     0.9500    -0.3520 ca         1 ERJ       0.433800
      4 C5          -1.0890     0.0590    -0.1810 ca         1 ERJ      -0.152200
      5 C6          -2.3650     0.6240    -0.1350 ca         1 ERJ       0.598800
      6 C8           0.6720    -1.1130    -0.2120 cc         1 ERJ       0.431700
      7 C20         -3.6700    -1.4960     0.1810 cc         1 ERJ      -0.071100
      8 C22         -5.8890    -0.4290     0.2560 cc         1 ERJ      -0.138100
      9 C1           2.4710     0.6410    -0.4770 c5         1 ERJ       0.265800
     10 C19         -3.5990    -0.1340     0.0400 cd         1 ERJ      -0.193500
     11 C2          -1.3690     2.6830    -0.4270 ca         1 ERJ       0.662900
     12 C10          3.1250     0.9200     0.8830 c5         1 ERJ       0.113100
     13 C23         -4.8920     0.4750     0.0860 cd         1 ERJ      -0.100000
     14 C3           4.5830     0.5410     0.6080 c5         1 ERJ       0.078100
     15 C7           4.3870    -0.6660    -0.3070 c5         1 ERJ       0.103100
     16 C9           4.2050    -1.9560     0.4730 c3         1 ERJ       0.117400
     17 N7          -0.6200    -1.2250    -0.0990 nd         1 ERJ      -0.566100
     18 N9           1.0990     0.1750    -0.3670 na         1 ERJ      -0.272000
     19 O2           2.8850     2.2370     1.2590 oh         1 ERJ      -0.543800
     20 O3           5.1910     1.6200    -0.0490 oh         1 ERJ      -0.559800
     21 O4           3.2290    -0.3530    -1.0890 os         1 ERJ      -0.376600
     22 O5           3.8170    -2.9690    -0.4210 oh         1 ERJ      -0.578800
     23 S21         -5.2770    -2.0300     0.3640 ss         1 ERJ      -0.078800
     24 H1           1.3620    -1.9430    -0.2150 h5         1 ERJ       0.078800
     25 H3          -6.9490    -0.2440     0.3240 h4         1 ERJ       0.168000
     26 H4           2.4430     1.5530    -1.0820 h2         1 ERJ       0.128700
     27 H5          -1.5230     3.7510    -0.5290 h5         1 ERJ       0.050100
     28 H6           2.7210     0.2140     1.6210 h1         1 ERJ       0.045700
     29 H7          -5.0550     1.5380    -0.0050 ha         1 ERJ       0.170000
     30 H8           5.1150     0.2670     1.5280 h1         1 ERJ       0.051700
     31 H9           5.2230    -0.7880    -1.0030 h1         1 ERJ       0.091700
     32 H10          5.1600    -2.1830     0.9640 h1         1 ERJ       0.023200
     33 H11          3.4640    -1.8220     1.2730 h1         1 ERJ       0.023200
     34 H12          3.1380     2.3460     2.1810 ho         1 ERJ       0.413000
     35 H13          6.0930     1.3710    -0.2740 ho         1 ERJ       0.408000
     36 H14          3.7270    -3.7880     0.0760 ho         1 ERJ       0.409000
     37 H2          -2.8540    -2.2020     0.1830 h4         1 ERJ       0.194000
@<TRIPOS>BOND
     1     1     5 ar  
     2     1    11 ar  
     3     2     3 ar  
     4     2    11 ar  
     5     3     4 ar  
     6     3    18 1   
     7     4     5 ar  
     8     4    17 1   
     9     5    10 1   
    10     6    17 2   
    11     6    18 1   
    12     6    24 1   
    13     7    10 2   
    14     7    23 1   
    15     7    37 1   
    16     8    13 2   
    17     8    23 1   
    18     8    25 1   
    19     9    12 1   
    20     9    18 1   
    21     9    21 1   
    22     9    26 1   
    23    10    13 1   
    24    11    27 1   
    25    12    14 1   
    26    12    19 1   
    27    12    28 1   
    28    13    29 1   
    29    14    15 1   
    30    14    20 1   
    31    14    30 1   
    32    15    16 1   
    33    15    21 1   
    34    15    31 1   
    35    16    22 1   
    36    16    32 1   
    37    16    33 1   
    38    19    34 1   
    39    20    35 1   
    40    22    36 1   
@<TRIPOS>SUBSTRUCTURE
     1 ERJ         1 TEMP              0 ****  ****    0 ROOT
