@<TRIPOS>MOLECULE
ERK
   64    68     1     0     0
SMALL
No Charge or Current Charge


@<TRIPOS>ATOM
      1 C1          -5.9640     3.0340    -0.7150 c3         1 ERK      -0.105100
      2 C2          -6.5120     1.5990    -0.8680 c3         1 ERK       0.165000
      3 C6          -4.0020    -0.8020     0.8250 c3         1 ERK       0.026000
      4 C8          -2.2980    -2.6380    -0.0300 c5         1 ERK       0.141300
      5 C10          0.1420    -3.5030    -0.4830 ca         1 ERK      -0.108000
      6 C11          1.5210    -3.2240    -0.3820 ca         1 ERK      -0.053000
      7 C12          1.9950    -2.0040     0.1870 cp         1 ERK      -0.170500
      8 C13          1.0340    -1.0550     0.6340 ca         1 ERK       0.007000
      9 C14         -0.3280    -1.3620     0.5210 ca         1 ERK      -0.167600
     10 C15         -1.4960    -0.5560     0.9140 c          1 ERK       0.592600
     11 N18          3.8340    -0.4630    -0.0970 nb         1 ERK      -0.249000
     12 C19          5.1380    -0.1550    -0.0300 ca         1 ERK       0.394900
     13 C21          6.7820     1.7680    -0.3570 c6         1 ERK       0.246500
     14 C22          6.8360     2.9660    -1.3330 c6         1 ERK      -0.132400
     15 C23          8.1680     3.7320    -1.1600 c6         1 ERK       0.157100
     16 C25          8.3660     3.0460     1.1550 c6         1 ERK       0.157100
     17 C26          7.0470     2.2440     1.0910 c6         1 ERK      -0.132400
     18 C28          5.7730    -2.1940     0.7900 ca         1 ERK       0.164900
     19 C31         -8.0120     1.5190    -0.5960 ca         1 ERK      -0.094300
     20 C35         -9.9310     1.8450     0.8840 ca         1 ERK      -0.110500
     21 C36         -8.5480     1.9300     0.6430 ca         1 ERK      -0.094500
     22 N3          -5.7950     0.6640    -0.0040 ns         1 ERK      -0.511900
     23 C4          -4.5360     0.1610    -0.2580 c          1 ERK       0.571100
     24 O5          -3.9110     0.4540    -1.2700 o          1 ERK      -0.576100
     25 N7          -2.6290    -1.3190     0.5940 n          1 ERK      -0.401800
     26 C9          -0.7770    -2.5530    -0.0190 ca         1 ERK      -0.062300
     27 C17          3.4590    -1.7020     0.2820 cp         1 ERK       0.243500
     28 O24          8.3180     4.1420     0.2160 os         1 ERK      -0.448000
     29 N27          6.1320    -0.9600     0.3890 nb         1 ERK      -0.241000
     30 C29          4.4340    -2.6220     0.7610 ca         1 ERK      -0.066000
     31 Cl3          4.0400    -4.2330     1.3700 cl         1 ERK      -0.176000
     32 C32         -8.8820     1.0160    -1.5860 ca         1 ERK      -0.094500
     33 C33        -10.2640     0.9330    -1.3450 ca         1 ERK      -0.110500
     34 C34        -10.7890     1.3480    -0.1100 ca         1 ERK      -0.107000
     35 H39         -6.5250     3.7260    -1.3540 hc         1 ERK       0.045033
     36 H38         -6.0430     3.3810     0.3220 hc         1 ERK       0.045033
     37 H40         -4.9090     3.0810    -1.0100 hc         1 ERK       0.045033
     38 H37         -6.3380     1.2920    -1.9090 h1         1 ERK       0.072700
     39 H42         -4.0350    -0.2750     1.7870 h1         1 ERK       0.072200
     40 H43         -4.6980    -1.6480     0.8880 h1         1 ERK       0.072200
     41 H44         -2.6630    -3.4810     0.5720 h1         1 ERK       0.066200
     42 H45         -2.6930    -2.7180    -1.0520 h1         1 ERK       0.066200
     43 H46         -0.2010    -4.4390    -0.9200 ha         1 ERK       0.123000
     44 H47          2.2310    -3.9540    -0.7640 ha         1 ERK       0.124000
     45 H48          1.3450    -0.1050     1.0670 ha         1 ERK       0.146000
     46 H50          7.5740     1.0590    -0.6520 h1         1 ERK       0.079700
     47 H51          6.7410     2.6150    -2.3690 hc         1 ERK       0.059200
     48 H52          5.9980     3.6510    -1.1470 hc         1 ERK       0.059200
     49 H53          9.0180     3.0960    -1.4460 h1         1 ERK       0.047950
     50 H54          8.1750     4.6230    -1.8030 h1         1 ERK       0.047950
     51 H56          8.5150     3.4480     2.1670 h1         1 ERK       0.047950
     52 H55          9.2220     2.3980     0.9150 h1         1 ERK       0.047950
     53 H57          6.2190     2.8760     1.4420 hc         1 ERK       0.059200
     54 H58          7.1030     1.3860     1.7730 hc         1 ERK       0.059200
     55 H59          6.5690    -2.8440     1.1490 h4         1 ERK       0.033100
     56 H63        -10.3360     2.1650     1.8420 ha         1 ERK       0.111500
     57 H64         -7.8950     2.3130     1.4240 ha         1 ERK       0.109500
     58 H41         -6.2520     0.3570     0.8460 hn         1 ERK       0.311500
     59 H49          4.6680     1.6940    -0.7530 hn         1 ERK       0.507000
     60 H60         -8.4880     0.6890    -2.5460 ha         1 ERK       0.109500
     61 H61        -10.9270     0.5450    -2.1150 ha         1 ERK       0.111500
     62 H62        -11.8590     1.2830     0.0770 ha         1 ERK       0.112000
     63 O16         -1.4870     0.5560     1.4240 o          1 ERK      -0.534000
     64 N20          5.4600     1.1290    -0.4480 nu         1 ERK      -0.911100
@<TRIPOS>BOND
     1     1     2 1   
     2     1    35 1   
     3     1    36 1   
     4     1    37 1   
     5     2    19 1   
     6     2    22 1   
     7     2    38 1   
     8     3    23 1   
     9     3    25 1   
    10     3    39 1   
    11     3    40 1   
    12     4    25 1   
    13     4    26 1   
    14     4    41 1   
    15     4    42 1   
    16     5     6 ar  
    17     5    26 ar  
    18     5    43 1   
    19     6     7 ar  
    20     6    44 1   
    21     7     8 ar  
    22     7    27 1   
    23     8     9 ar  
    24     8    45 1   
    25     9    10 1   
    26     9    26 ar  
    27    10    25 1   
    28    10    63 2   
    29    11    12 ar  
    30    11    27 ar  
    31    12    29 ar  
    32    12    64 1   
    33    13    14 1   
    34    13    17 1   
    35    13    46 1   
    36    13    64 1   
    37    14    15 1   
    38    14    47 1   
    39    14    48 1   
    40    15    28 1   
    41    15    49 1   
    42    15    50 1   
    43    16    17 1   
    44    16    28 1   
    45    16    51 1   
    46    16    52 1   
    47    17    53 1   
    48    17    54 1   
    49    18    29 ar  
    50    18    30 ar  
    51    18    55 1   
    52    19    21 ar  
    53    19    32 ar  
    54    20    21 ar  
    55    20    34 ar  
    56    20    56 1   
    57    21    57 1   
    58    22    23 1   
    59    22    58 1   
    60    23    24 2   
    61    27    30 ar  
    62    30    31 1   
    63    32    33 ar  
    64    32    60 1   
    65    33    34 ar  
    66    33    61 1   
    67    34    62 1   
    68    59    64 1   
@<TRIPOS>SUBSTRUCTURE
     1 ERK         1 TEMP              0 ****  ****    0 ROOT
