@<TRIPOS>MOLECULE
ERK
   64    68     1     0     0
SMALL
bcc


@<TRIPOS>ATOM
      1 C1          -7.8970     2.8010     1.1170 c3         1 ERK      -0.105100
      2 C2          -6.6470     2.2450     0.4450 c3         1 ERK       0.165000
      3 C6          -3.9720     0.3420     2.3490 c3         1 ERK       0.026000
      4 C8          -2.7840    -1.5670     1.2270 c5         1 ERK       0.141300
      5 C10         -0.7010    -2.7940     0.2300 ca         1 ERK      -0.126000
      6 C11          0.6750    -2.7150     0.0670 ca         1 ERK      -0.071000
      7 C12          1.4060    -1.6200     0.5390 cp         1 ERK      -0.170500
      8 C13          0.7480    -0.5720     1.1760 ca         1 ERK      -0.011000
      9 C14         -0.6190    -0.6730     1.3520 ca         1 ERK      -0.167600
     10 C15         -1.5480     0.2770     1.9980 c          1 ERK       0.735100
     11 N18          3.3160    -0.3650    -0.1180 nb         1 ERK      -0.775000
     12 C19          4.6320    -0.2170    -0.3140 ca         1 ERK       0.920900
     13 C21          6.4190     1.3600    -0.9650 c6         1 ERK       0.246500
     14 C22          6.5260     2.4630    -2.0120 c6         1 ERK      -0.132400
     15 C23          7.9710     2.9240    -2.1330 c6         1 ERK       0.133900
     16 C25          8.4720     2.3270     0.0720 c6         1 ERK       0.133900
     17 C26          7.0570     1.8380     0.3400 c6         1 ERK      -0.132400
     18 C28          5.1060    -2.3090     0.3860 ca         1 ERK       0.493200
     19 C31         -7.0110     1.3940    -0.7520 ca         1 ERK      -0.094300
     20 C35         -7.8810    -0.6540    -1.6900 ca         1 ERK      -0.128500
     21 C36         -7.4980     0.1000    -0.5890 ca         1 ERK      -0.112500
     22 N3          -5.8710     1.5060     1.4230 ns         1 ERK      -0.578900
     23 C4          -4.6160     1.0980     1.1880 c          1 ERK       0.638100
     24 O5          -4.0160     1.3190     0.1520 o          1 ERK      -0.576100
     25 N7          -2.7690    -0.3120     1.9480 n          1 ERK      -0.468800
     26 C9          -1.3400    -1.7600     0.8900 ca         1 ERK      -0.062300
     27 C17          2.8680    -1.5240     0.3350 cp         1 ERK       0.571800
     28 O24          8.4990     3.3520    -0.8970 os         1 ERK      -0.401600
     29 N27          5.5510    -1.1610    -0.0800 nb         1 ERK      -0.767000
     30 C29          3.7630    -2.5570     0.6200 ca         1 ERK      -0.288200
     31 CL3          3.2900    -4.0670     1.3090 cl         1 ERK      -0.084400
     32 C32         -6.9170     1.9190    -2.0350 ca         1 ERK      -0.112500
     33 C33         -7.3030     1.1700    -3.1390 ca         1 ERK      -0.128500
     34 C34         -7.7860    -0.1210    -2.9700 ca         1 ERK      -0.125000
     35 H39         -8.4880     3.3660     0.3980 hc         1 ERK       0.045033
     36 H38         -8.5250     1.9980     1.5080 hc         1 ERK       0.045033
     37 H40         -7.6350     3.4660     1.9400 hc         1 ERK       0.045033
     38 H37         -6.0450     3.0880     0.0940 h1         1 ERK       0.072700
     39 H42         -3.7510     1.0520     3.1480 h1         1 ERK       0.072200
     40 H43         -4.6680    -0.3900     2.7650 h1         1 ERK       0.072200
     41 H44         -3.1780    -2.3760     1.8470 h1         1 ERK       0.066200
     42 H45         -3.4040    -1.5090     0.3280 h1         1 ERK       0.066200
     43 H46         -1.2470    -3.6450    -0.1560 ha         1 ERK       0.141000
     44 H47          1.1830    -3.5120    -0.4590 ha         1 ERK       0.142000
     45 H48          1.2960     0.2900     1.5370 ha         1 ERK       0.164000
     46 H50          6.9740     0.4890    -1.3220 h1         1 ERK       0.079700
     47 H51          6.1790     2.1060    -2.9840 hc         1 ERK       0.059200
     48 H52          5.8920     3.3100    -1.7280 hc         1 ERK       0.059200
     49 H53          8.5800     2.1060    -2.5460 h1         1 ERK       0.047950
     50 H54          8.0460     3.7660    -2.8230 h1         1 ERK       0.047950
     51 H56          8.9200     2.7320     0.9810 h1         1 ERK       0.047950
     52 H55          9.0950     1.4790    -0.2510 h1         1 ERK       0.047950
     53 H57          6.4560     2.6480     0.7650 hc         1 ERK       0.059200
     54 H58          7.0840     1.0280     1.0720 hc         1 ERK       0.059200
     55 H59          5.8450    -3.0760     0.5970 h4         1 ERK       0.033100
     56 H63         -8.2560    -1.6590    -1.5480 ha         1 ERK       0.129500
     57 H64         -7.5750    -0.3290     0.4030 ha         1 ERK       0.127500
     58 H41         -6.3080     1.2660     2.2990 hn         1 ERK       0.311500
     59 H49          4.3290     1.6810    -0.8690 hn         1 ERK       0.451800
     60 H60         -6.5350     2.9240    -2.1760 ha         1 ERK       0.127500
     61 H61         -7.2170     1.5920    -4.1330 ha         1 ERK       0.129500
     62 H62         -8.0820    -0.7090    -3.8290 ha         1 ERK       0.130000
     63 O16         -1.2870     1.3590     2.4930 o          1 ERK      -0.609500
     64 N20          5.0370     0.9660    -0.8020 nu         1 ERK      -0.855900
@<TRIPOS>BOND
     1     1     2 1   
     2     1    35 1   
     3     1    36 1   
     4     1    37 1   
     5     2    19 1   
     6     2    22 1   
     7     2    38 1   
     8     3    23 1   
     9     3    25 1   
    10     3    39 1   
    11     3    40 1   
    12     4    25 1   
    13     4    26 1   
    14     4    41 1   
    15     4    42 1   
    16     5     6 ar  
    17     5    26 ar  
    18     5    43 1   
    19     6     7 ar  
    20     6    44 1   
    21     7     8 ar  
    22     7    27 1   
    23     8     9 ar  
    24     8    45 1   
    25     9    10 1   
    26     9    26 ar  
    27    10    25 1   
    28    10    63 2   
    29    11    12 ar  
    30    11    27 ar  
    31    12    29 ar  
    32    12    64 1   
    33    13    14 1   
    34    13    17 1   
    35    13    46 1   
    36    13    64 1   
    37    14    15 1   
    38    14    47 1   
    39    14    48 1   
    40    15    28 1   
    41    15    49 1   
    42    15    50 1   
    43    16    17 1   
    44    16    28 1   
    45    16    51 1   
    46    16    52 1   
    47    17    53 1   
    48    17    54 1   
    49    18    29 ar  
    50    18    30 ar  
    51    18    55 1   
    52    19    21 ar  
    53    19    32 ar  
    54    20    21 ar  
    55    20    34 ar  
    56    20    56 1   
    57    21    57 1   
    58    22    23 1   
    59    22    58 1   
    60    23    24 2   
    61    27    30 ar  
    62    30    31 1   
    63    32    33 ar  
    64    32    60 1   
    65    33    34 ar  
    66    33    61 1   
    67    34    62 1   
    68    59    64 1   
@<TRIPOS>SUBSTRUCTURE
     1 ERK         1 TEMP              0 ****  ****    0 ROOT
