@<TRIPOS>MOLECULE
ERM
   78    85     1     0     0
SMALL
No Charge or Current Charge


@<TRIPOS>ATOM
      1 C1           8.0870     1.1710    -1.3850 cc         1 ERM      -0.149100
      2 N1           8.9380     0.4210    -0.5260 na         1 ERM      -0.226700
      3 O1           0.9940    -1.1930     2.1460 o          1 ERM      -0.566100
      4 C10          6.1180    -1.6820     1.6850 ca         1 ERM      -0.120000
      5 C11          7.4800    -1.9410     2.0110 ca         1 ERM      -0.095000
      6 C12          8.5320    -1.2810     1.3230 ca         1 ERM      -0.118000
      7 C13          8.1730    -0.3740     0.3190 ca         1 ERM      -0.039200
      8 C14          6.8710    -0.1530     0.0310 ca         1 ERM      -0.106800
      9 C15          2.7610     2.5960    -1.7310 c3         1 ERM       0.152100
     10 C16          0.8150    -1.1300     0.9390 c          1 ERM       0.605100
     11 C17         -1.4860    -2.0460     1.1100 c5         1 ERM       0.274400
     12 C18         -2.1190    -0.9070     1.9880 c          1 ERM       0.545000
     13 C19         -4.1840     0.5610     1.7160 c6         1 ERM       0.058700
     14 N2           2.9690     1.2180    -1.2220 n3         1 ERM      -0.722600
     15 C2           6.8030     0.7890    -1.0150 cd         1 ERM      -0.143400
     16 O2          -2.5080    -2.3740     0.1470 os         1 ERM      -0.474000
     17 C20         -5.6130     0.4220     1.0940 c          1 ERM       0.565000
     18 C21         -7.0220    -0.8120    -0.6250 c5         1 ERM       0.104000
     19 C22         -6.8510    -2.2800    -1.1180 c5         1 ERM      -0.098400
     20 C23         -5.3090    -2.4220    -1.2360 c5         1 ERM      -0.079400
     21 C24         -4.8710    -1.7600     0.1020 c5         1 ERM       0.128700
     22 C25         -3.3750    -1.2370     0.0150 c5         1 ERM       0.550400
     23 C26         -1.1540    -3.3320     1.9040 c3         1 ERM      -0.093100
     24 C27         -3.6820     2.0260     1.5430 c3         1 ERM      -0.035100
     25 C28         -3.2880     2.3700     0.1100 ca         1 ERM      -0.085300
     26 C29         -4.2720     2.7050    -0.8410 ca         1 ERM      -0.108000
     27 C3           5.4900     1.2420    -1.6000 c6         1 ERM       0.011800
     28 N3          -0.3740    -1.4840     0.3280 ns         1 ERM      -0.538900
     29 O3          -1.8370    -0.5040     3.1090 o          1 ERM      -0.477000
     30 C30         -3.9090     2.9890    -2.1670 ca         1 ERM      -0.119500
     31 C31         -2.5600     2.9470    -2.5510 ca         1 ERM      -0.112000
     32 C32         -1.5730     2.6240    -1.6060 ca         1 ERM      -0.119500
     33 C33         -1.9340     2.3370    -0.2790 ca         1 ERM      -0.108000
     34 C4           4.3130     1.0100    -0.5720 c6         1 ERM       0.219700
     35 N4          -3.1720    -0.4340     1.2160 n          1 ERM      -0.480800
     36 O4          -6.5250     1.1930     1.3630 o          1 ERM      -0.560000
     37 C5           1.8550     0.7910    -0.3330 c6         1 ERM       0.174800
     38 N5          -5.7790    -0.5980     0.1460 n          1 ERM      -0.405800
     39 O5          -3.0290    -0.4930    -1.1240 oh         1 ERM      -0.646000
     40 C6           1.9460    -0.7170    -0.0220 c6         1 ERM      -0.104500
     41 C7           3.3430    -1.1250     0.4350 c2         1 ERM      -0.213200
     42 C8           4.4310    -0.3550     0.2030 ce         1 ERM      -0.029400
     43 C9           5.8000    -0.7570     0.6610 ca         1 ERM      -0.007800
     44 H1           8.4480     1.8620    -2.1420 h4         1 ERM       0.213000
     45 H2           9.9530     0.4550    -0.5270 hn         1 ERM       0.350000
     46 H3           5.3300    -2.1890     2.2350 ha         1 ERM       0.113000
     47 H4           7.7170    -2.6510     2.8000 ha         1 ERM       0.110000
     48 H5           9.5740    -1.4730     1.5680 ha         1 ERM       0.115000
     49 H6           3.4960     2.8540    -2.5040 h1         1 ERM       0.033367
     50 H7           1.7690     2.6940    -2.1880 h1         1 ERM       0.033367
     51 H8           2.8380     3.3310    -0.9190 h1         1 ERM       0.033367
     52 H9          -4.3370     0.3830     2.7900 h1         1 ERM       0.086700
     53 H11         -7.0720    -0.1080    -1.4670 h1         1 ERM       0.060200
     54 H12         -7.9250    -0.6860    -0.0120 h1         1 ERM       0.060200
     55 H13         -7.2550    -2.9880    -0.3830 hc         1 ERM       0.056200
     56 H14         -7.3700    -2.4650    -2.0660 hc         1 ERM       0.056200
     57 H15         -4.9800    -3.4650    -1.3150 hc         1 ERM       0.070700
     58 H16         -4.9390    -1.8910    -2.1200 hc         1 ERM       0.070700
     59 H17         -5.0260    -2.4200     0.9660 h1         1 ERM       0.071700
     60 H18         -0.5140    -3.1320     2.7700 hc         1 ERM       0.064700
     61 H19         -2.0700    -3.7980     2.2840 hc         1 ERM       0.064700
     62 H20         -0.6440    -4.0640     1.2680 hc         1 ERM       0.064700
     63 H21         -4.4400     2.7340     1.9020 hc         1 ERM       0.076700
     64 H22         -2.8200     2.1810     2.2040 hc         1 ERM       0.076700
     65 H23         -5.3210     2.7480    -0.5560 ha         1 ERM       0.126000
     66 H24          5.5530     2.3020    -1.8800 hc         1 ERM       0.055200
     67 H25          5.2850     0.6810    -2.5210 hc         1 ERM       0.055200
     68 H26         -0.4210    -1.3980    -0.6790 hn         1 ERM       0.324500
     69 H27         -4.6740     3.2440    -2.8980 ha         1 ERM       0.114000
     70 H28         -2.2780     3.1680    -3.5790 ha         1 ERM       0.114000
     71 H29         -0.5290     2.5970    -1.9050 ha         1 ERM       0.114000
     72 H30         -1.1620     2.0820     0.4450 ha         1 ERM       0.126000
     73 H31          4.4330     1.7830     0.2030 h1         1 ERM       0.042700
     74 H32          1.8810     1.3600     0.6100 h1         1 ERM       0.051700
     75 H33          0.8830     0.9930    -0.8060 h1         1 ERM       0.051700
     76 H34         -3.1640     0.4370    -0.8540 ho         1 ERM       0.482000
     77 H35          1.7280    -1.1990    -0.9840 hc         1 ERM       0.076700
     78 H36          3.4230    -2.0770     0.9600 ha         1 ERM       0.179000
@<TRIPOS>BOND
     1     1     2 1   
     2     1    15 2   
     3     1    44 1   
     4     2     7 1   
     5     2    45 1   
     6     3    10 2   
     7     4     5 ar  
     8     4    43 ar  
     9     4    46 1   
    10     5     6 ar  
    11     5    47 1   
    12     6     7 ar  
    13     6    48 1   
    14     7     8 ar  
    15     8    15 1   
    16     8    43 ar  
    17     9    14 1   
    18     9    49 1   
    19     9    50 1   
    20     9    51 1   
    21    10    28 1   
    22    10    40 1   
    23    11    12 1   
    24    11    16 1   
    25    11    23 1   
    26    11    28 1   
    27    12    29 2   
    28    12    35 1   
    29    13    17 1   
    30    13    24 1   
    31    13    35 1   
    32    13    52 1   
    33    14    34 1   
    34    14    37 1   
    35    15    27 1   
    36    16    22 1   
    37    17    36 2   
    38    17    38 1   
    39    18    19 1   
    40    18    38 1   
    41    18    53 1   
    42    18    54 1   
    43    19    20 1   
    44    19    55 1   
    45    19    56 1   
    46    20    21 1   
    47    20    57 1   
    48    20    58 1   
    49    21    22 1   
    50    21    38 1   
    51    21    59 1   
    52    22    35 1   
    53    22    39 1   
    54    23    60 1   
    55    23    61 1   
    56    23    62 1   
    57    24    25 1   
    58    24    63 1   
    59    24    64 1   
    60    25    26 ar  
    61    25    33 ar  
    62    26    30 ar  
    63    26    65 1   
    64    27    34 1   
    65    27    66 1   
    66    27    67 1   
    67    28    68 1   
    68    30    31 ar  
    69    30    69 1   
    70    31    32 ar  
    71    31    70 1   
    72    32    33 ar  
    73    32    71 1   
    74    33    72 1   
    75    34    42 1   
    76    34    73 1   
    77    37    40 1   
    78    37    74 1   
    79    37    75 1   
    80    39    76 1   
    81    40    41 1   
    82    40    77 1   
    83    41    42 2   
    84    41    78 1   
    85    42    43 1   
@<TRIPOS>SUBSTRUCTURE
     1 ERM         1 TEMP              0 ****  ****    0 ROOT
