@<TRIPOS>MOLECULE
ERM
   78    85     1     0     0
SMALL
abcg2


@<TRIPOS>ATOM
      1 C1           7.9780     0.5160    -1.4770 cc         1 ERM      -0.149100
      2 N1           8.5210    -0.6520    -0.9860 na         1 ERM      -0.226700
      3 O1           0.6250     0.5620     2.2280 o          1 ERM      -0.566100
      4 C10          5.1840    -2.1710     0.8810 ca         1 ERM      -0.120000
      5 C11          6.3510    -2.9530     0.9540 ca         1 ERM      -0.095000
      6 C12          7.5530    -2.5710     0.3750 ca         1 ERM      -0.118000
      7 C13          7.5670    -1.3530    -0.3070 ca         1 ERM      -0.039200
      8 C14          6.3980    -0.5870    -0.3840 ca         1 ERM      -0.106800
      9 C15          3.6770     3.6920    -0.4520 c3         1 ERM       0.152100
     10 C16          0.6260     0.1840     1.0720 c          1 ERM       0.605100
     11 C17         -1.2920    -1.4120     1.3300 c5         1 ERM       0.274400
     12 C18         -2.2880    -0.4530     2.0080 c          1 ERM       0.545000
     13 C19         -4.5320     0.3990     1.4050 c6         1 ERM       0.058700
     14 N2           3.3500     2.2800    -0.5140 n3         1 ERM      -0.722600
     15 C2           6.6590     0.5870    -1.1270 cd         1 ERM      -0.143400
     16 O2          -2.0950    -2.0690     0.3840 os         1 ERM      -0.474000
     17 C20         -5.7140    -0.0960     0.5650 c          1 ERM       0.565000
     18 C21         -6.7030    -1.8900    -0.7730 c5         1 ERM       0.104000
     19 C22         -6.2010    -3.2990    -1.0710 c5         1 ERM      -0.098400
     20 C23         -4.6810    -3.1540    -1.0580 c5         1 ERM      -0.079400
     21 C24         -4.4630    -2.1880     0.1000 c5         1 ERM       0.128700
     22 C25         -3.2290    -1.3040     0.0650 c5         1 ERM       0.550400
     23 C26         -0.6880    -2.4100     2.2910 c3         1 ERM      -0.093100
     24 C27         -4.2920     1.9090     1.2460 c3         1 ERM      -0.035100
     25 C28         -3.6340     2.2650    -0.0550 ca         1 ERM      -0.085300
     26 C29         -4.3760     2.4560    -1.2190 ca         1 ERM      -0.108000
     27 C3           5.5390     1.5420    -1.3650 c6         1 ERM       0.011800
     28 N3          -0.2920    -0.6700     0.5680 ns         1 ERM      -0.538900
     29 O3          -2.1850     0.0910     3.0800 o          1 ERM      -0.477000
     30 C30         -3.7470     2.7090    -2.4300 ca         1 ERM      -0.119500
     31 C31         -2.3610     2.7720    -2.5000 ca         1 ERM      -0.112000
     32 C32         -1.6100     2.6020    -1.3450 ca         1 ERM      -0.119500
     33 C33         -2.2440     2.3560    -0.1320 ca         1 ERM      -0.108000
     34 C4           4.5020     1.4400    -0.2180 c6         1 ERM       0.219700
     35 N4          -3.3290    -0.3670     1.1550 n          1 ERM      -0.480800
     36 O4          -6.7050     0.6090     0.4420 o          1 ERM      -0.560000
     37 C5           2.2220     1.9980     0.3540 c6         1 ERM       0.174800
     38 N5          -5.6330    -1.3220     0.0430 n          1 ERM      -0.405800
     39 O5          -3.1430    -0.7010    -1.1630 oh         1 ERM      -0.646000
     40 C6           1.6810     0.6110     0.0600 c6         1 ERM      -0.104500
     41 C7           2.8090    -0.3770     0.1090 c2         1 ERM      -0.213200
     42 C8           4.0870    -0.0060     0.0360 ce         1 ERM      -0.029400
     43 C9           5.1920    -0.9640     0.1980 ca         1 ERM      -0.007800
     44 H1           8.5900     1.2000    -2.0440 h4         1 ERM       0.213000
     45 H2           9.4800    -0.9300    -1.1130 hn         1 ERM       0.350000
     46 H3           4.2900    -2.5160     1.3880 ha         1 ERM       0.113000
     47 H4           6.3120    -3.8870     1.4990 ha         1 ERM       0.110000
     48 H5           8.4340    -3.1940     0.4620 ha         1 ERM       0.115000
     49 H6           4.4430     3.9560    -1.1790 h1         1 ERM       0.033367
     50 H7           2.7920     4.2820    -0.6910 h1         1 ERM       0.033367
     51 H8           4.0330     4.0040     0.5420 h1         1 ERM       0.033367
     52 H9          -4.8300     0.2200     2.4450 h1         1 ERM       0.086700
     53 H11         -6.8280    -1.3050    -1.6870 h1         1 ERM       0.060200
     54 H12         -7.6510    -1.8830    -0.2360 h1         1 ERM       0.060200
     55 H13         -6.5210    -3.9880    -0.2870 hc         1 ERM       0.056200
     56 H14         -6.5820    -3.6740    -2.0200 hc         1 ERM       0.056200
     57 H15         -4.1620    -4.0970    -0.9020 hc         1 ERM       0.070700
     58 H16         -4.3360    -2.7220    -1.9980 hc         1 ERM       0.070700
     59 H17         -4.4430    -2.7420     1.0460 h1         1 ERM       0.071700
     60 H18         -0.0740    -1.8980     3.0280 hc         1 ERM       0.064700
     61 H19         -1.4670    -2.9620     2.8160 hc         1 ERM       0.064700
     62 H20         -0.0600    -3.1170     1.7500 hc         1 ERM       0.064700
     63 H21         -5.2480     2.4190     1.3610 hc         1 ERM       0.076700
     64 H22         -3.6660     2.2350     2.0770 hc         1 ERM       0.076700
     65 H23         -5.4570     2.4040    -1.1810 ha         1 ERM       0.126000
     66 H24          5.9070     2.5640    -1.4460 hc         1 ERM       0.055200
     67 H25          5.0260     1.3130    -2.3050 hc         1 ERM       0.055200
     68 H26         -0.1510    -1.0100    -0.3740 hn         1 ERM       0.324500
     69 H27         -4.3410     2.8550    -3.3230 ha         1 ERM       0.114000
     70 H28         -1.8700     2.9630    -3.4460 ha         1 ERM       0.114000
     71 H29         -0.5300     2.6670    -1.3870 ha         1 ERM       0.114000
     72 H30         -1.6490     2.2510     0.7690 ha         1 ERM       0.126000
     73 H31          5.0050     1.7860     0.7060 h1         1 ERM       0.042700
     74 H32          2.4880     2.0830     1.4190 h1         1 ERM       0.051700
     75 H33          1.4480     2.7470     0.1650 h1         1 ERM       0.051700
     76 H34         -2.5970     0.0970    -1.1200 ho         1 ERM       0.482000
     77 H35          1.2330     0.6060    -0.9410 hc         1 ERM       0.076700
     78 H36          2.5610    -1.4280     0.2280 ha         1 ERM       0.179000
@<TRIPOS>BOND
     1     1     2 1   
     2     1    15 2   
     3     1    44 1   
     4     2     7 1   
     5     2    45 1   
     6     3    10 2   
     7     4     5 ar  
     8     4    43 ar  
     9     4    46 1   
    10     5     6 ar  
    11     5    47 1   
    12     6     7 ar  
    13     6    48 1   
    14     7     8 ar  
    15     8    15 1   
    16     8    43 ar  
    17     9    14 1   
    18     9    49 1   
    19     9    50 1   
    20     9    51 1   
    21    10    28 1   
    22    10    40 1   
    23    11    12 1   
    24    11    16 1   
    25    11    23 1   
    26    11    28 1   
    27    12    29 2   
    28    12    35 1   
    29    13    17 1   
    30    13    24 1   
    31    13    35 1   
    32    13    52 1   
    33    14    34 1   
    34    14    37 1   
    35    15    27 1   
    36    16    22 1   
    37    17    36 2   
    38    17    38 1   
    39    18    19 1   
    40    18    38 1   
    41    18    53 1   
    42    18    54 1   
    43    19    20 1   
    44    19    55 1   
    45    19    56 1   
    46    20    21 1   
    47    20    57 1   
    48    20    58 1   
    49    21    22 1   
    50    21    38 1   
    51    21    59 1   
    52    22    35 1   
    53    22    39 1   
    54    23    60 1   
    55    23    61 1   
    56    23    62 1   
    57    24    25 1   
    58    24    63 1   
    59    24    64 1   
    60    25    26 ar  
    61    25    33 ar  
    62    26    30 ar  
    63    26    65 1   
    64    27    34 1   
    65    27    66 1   
    66    27    67 1   
    67    28    68 1   
    68    30    31 ar  
    69    30    69 1   
    70    31    32 ar  
    71    31    70 1   
    72    32    33 ar  
    73    32    71 1   
    74    33    72 1   
    75    34    42 1   
    76    34    73 1   
    77    37    40 1   
    78    37    74 1   
    79    37    75 1   
    80    39    76 1   
    81    40    41 1   
    82    40    77 1   
    83    41    42 2   
    84    41    78 1   
    85    42    43 1   
@<TRIPOS>SUBSTRUCTURE
     1 ERM         1 TEMP              0 ****  ****    0 ROOT
