@<TRIPOS>MOLECULE
ERP
   52    56     1     0     0
SMALL
No Charge or Current Charge


@<TRIPOS>ATOM
      1 N1           0.8260     2.9720    -0.9750 nb         1 ERP      -0.187000
      2 N3           3.1910     2.5910    -0.6240 nb         1 ERP      -0.160000
      3 C4           2.8930     1.3880    -0.0950 ca         1 ERP       0.106500
      4 C5           1.6020     0.9330     0.0190 ca         1 ERP      -0.010600
      5 C6           0.5500     1.7610    -0.4390 ca         1 ERP       0.309000
      6 C8           2.8350    -0.6360     0.8340 cc         1 ERP       0.432700
      7 C20         -1.9900     1.0280    -0.2890 cg         1 ERP      -0.054000
      8 C21         -3.3580     0.6060    -0.1980 ca         1 ERP       0.019000
      9 C22         -4.3840     1.4200    -0.7070 ca         1 ERP      -0.080500
     10 C24         -6.0720    -0.2320    -0.0170 cp         1 ERP      -0.019000
     11 C26         -3.6790    -0.6240     0.4010 ca         1 ERP      -0.080500
     12 C28         -7.9670    -1.4130     1.1950 ca         1 ERP      -0.097500
     13 C1           5.1440     0.4280     0.5340 c5         1 ERP       0.317300
     14 C19         -0.8210     1.3740    -0.3620 ch         1 ERP      -0.211000
     15 C2           2.1320     3.3250    -1.0400 ca         1 ERP       0.131900
     16 C10          5.8330    -0.4790     1.6230 c5         1 ERP       0.136300
     17 C23         -5.7250     1.0050    -0.6170 ca         1 ERP      -0.107500
     18 C25         -5.0200    -1.0370     0.4900 ca         1 ERP      -0.107500
     19 C27         -7.5000    -0.6730     0.0780 cp         1 ERP      -0.038000
     20 C29         -9.3070    -1.8270     1.2850 ca         1 ERP      -0.111500
     21 C3           7.1860    -0.7930     0.9280 c5         1 ERP       0.101300
     22 C30        -10.2110    -1.5110     0.2580 ca         1 ERP      -0.105000
     23 C31         -9.7730    -0.7800    -0.8580 ca         1 ERP      -0.111500
     24 C32         -8.4320    -0.3660    -0.9460 ca         1 ERP      -0.097500
     25 C7           6.6840    -1.0160    -0.5370 c5         1 ERP       0.127300
     26 C9           5.9980    -2.3980    -0.7760 c3         1 ERP       0.142600
     27 N7           1.5430    -0.3370     0.6010 nd         1 ERP      -0.548100
     28 N9           3.6820     0.3970     0.4190 na         1 ERP      -0.299300
     29 O2           6.0610     0.1780     2.8750 oh         1 ERP      -0.667000
     30 O3           8.0960     0.3180     1.0550 oh         1 ERP      -0.683000
     31 O4           5.7310     0.0600    -0.7400 os         1 ERP      -0.424000
     32 O5           5.7570    -2.6210    -2.1760 oh         1 ERP      -0.700000
     33 H1           3.1980    -1.5540     1.2790 h5         1 ERP       0.077800
     34 H2          -4.1460     2.3760    -1.1690 ha         1 ERP       0.125500
     35 H3          -2.8910    -1.2630     0.7950 ha         1 ERP       0.125500
     36 H5           5.4020     1.4750     0.7400 h2         1 ERP       0.128700
     37 H6           2.3540     4.2990    -1.4720 h5         1 ERP       0.054100
     38 H7           5.2710    -1.4070     1.7870 h1         1 ERP       0.045700
     39 H8          -6.5020     1.6580    -1.0060 ha         1 ERP       0.117500
     40 H9          -5.2430    -1.9990     0.9460 ha         1 ERP       0.117500
     41 H10         -9.6450    -2.3900     2.1520 ha         1 ERP       0.113000
     42 H11          7.6420    -1.7070     1.3360 h1         1 ERP       0.051700
     43 H12        -11.2480    -1.8320     0.3270 ha         1 ERP       0.113000
     44 H13        -10.4700    -0.5370    -1.6560 ha         1 ERP       0.113000
     45 H14         -8.1120     0.1870    -1.8250 ha         1 ERP       0.114500
     46 H15          7.5050    -0.9140    -1.2590 h1         1 ERP       0.091700
     47 H16          6.6570    -3.1840    -0.3850 h1         1 ERP       0.022200
     48 H17          5.0550    -2.4490    -0.2170 h1         1 ERP       0.022200
     49 H18          6.9550     0.5890     2.7630 ho         1 ERP       0.513000
     50 H19          8.9270     0.0820     0.5770 ho         1 ERP       0.508000
     51 H20          5.3120    -3.4980    -2.2590 ho         1 ERP       0.508000
     52 H4          -7.2870    -1.6570     2.0080 ha         1 ERP       0.114500
@<TRIPOS>BOND
     1     1     5 ar  
     2     1    15 ar  
     3     2     3 ar  
     4     2    15 ar  
     5     3     4 ar  
     6     3    28 1   
     7     4     5 ar  
     8     4    27 1   
     9     5    14 1   
    10     6    27 2   
    11     6    28 1   
    12     6    33 1   
    13     7     8 1   
    14     7    14 3   
    15     8     9 ar  
    16     8    11 ar  
    17     9    17 ar  
    18     9    34 1   
    19    10    17 ar  
    20    10    18 ar  
    21    10    19 1   
    22    11    18 ar  
    23    11    35 1   
    24    12    19 ar  
    25    12    20 ar  
    26    12    52 1   
    27    13    16 1   
    28    13    28 1   
    29    13    31 1   
    30    13    36 1   
    31    15    37 1   
    32    16    21 1   
    33    16    29 1   
    34    16    38 1   
    35    17    39 1   
    36    18    40 1   
    37    19    24 ar  
    38    20    22 ar  
    39    20    41 1   
    40    21    25 1   
    41    21    30 1   
    42    21    42 1   
    43    22    23 ar  
    44    22    43 1   
    45    23    24 ar  
    46    23    44 1   
    47    24    45 1   
    48    25    26 1   
    49    25    31 1   
    50    25    46 1   
    51    26    32 1   
    52    26    47 1   
    53    26    48 1   
    54    29    49 1   
    55    30    50 1   
    56    32    51 1   
@<TRIPOS>SUBSTRUCTURE
     1 ERP         1 TEMP              0 ****  ****    0 ROOT
