@<TRIPOS>MOLECULE
ERP
   52    56     1     0     0
SMALL
bcc


@<TRIPOS>ATOM
      1 N1           0.8230     3.0850    -0.1940 nb         1 ERP      -0.713000
      2 N3           3.1710     2.6810    -0.2750 nb         1 ERP      -0.686000
      3 C4           2.8710     1.3970    -0.2640 ca         1 ERP       0.434800
      4 C5           1.5780     0.8570    -0.2240 ca         1 ERP      -0.141200
      5 C6           0.5360     1.7800    -0.1860 ca         1 ERP       0.637300
      6 C8           2.8990    -0.7830    -0.2880 cc         1 ERP       0.432700
      7 C20         -1.9770     1.0200    -0.1040 cg         1 ERP      -0.054000
      8 C21         -3.3310     0.5980    -0.0600 ca         1 ERP       0.019000
      9 C22         -4.3670     1.5370    -0.0560 ca         1 ERP      -0.098500
     10 C24         -6.0100    -0.2390     0.0220 cp         1 ERP      -0.019000
     11 C26         -3.6480    -0.7630    -0.0220 ca         1 ERP      -0.098500
     12 C28         -7.7910    -1.8120     0.7870 ca         1 ERP      -0.115500
     13 C1           5.1560     0.3540    -0.3160 c5         1 ERP       0.264800
     14 C19         -0.8240     1.3780    -0.1410 ch         1 ERP      -0.211000
     15 C2           2.0970     3.4600    -0.2410 ca         1 ERP       0.657900
     16 C10          5.7770     0.2170     1.0790 c5         1 ERP       0.113100
     17 C23         -5.6840     1.1200    -0.0150 ca         1 ERP      -0.125500
     18 C25         -4.9680    -1.1700     0.0180 ca         1 ERP      -0.125500
     19 C27         -7.4170    -0.6780     0.0630 cp         1 ERP      -0.038000
     20 C29         -9.1140    -2.2270     0.8240 ca         1 ERP      -0.129500
     21 C3           7.0880    -0.5050     0.7590 c5         1 ERP       0.078100
     22 C30        -10.0880    -1.5170     0.1350 ca         1 ERP      -0.123000
     23 C31         -9.7290    -0.3870    -0.5890 ca         1 ERP      -0.129500
     24 C32         -8.4070     0.0290    -0.6240 ca         1 ERP      -0.115500
     25 C7           6.6210    -1.4520    -0.3460 c5         1 ERP       0.104100
     26 C9           6.0710    -2.7560     0.2030 c3         1 ERP       0.119400
     27 N7           1.6270    -0.5080    -0.2420 nd         1 ERP      -0.548100
     28 N9           3.7050     0.3220    -0.3020 na         1 ERP      -0.270000
     29 O2           5.8810     1.4710     1.6690 oh         1 ERP      -0.544800
     30 O3           8.0030     0.4510     0.2970 oh         1 ERP      -0.560800
     31 O4           5.6210    -0.7230    -1.0660 os         1 ERP      -0.377600
     32 O5           5.4860    -3.4740    -0.8530 oh         1 ERP      -0.577800
     33 H1           3.3060    -1.7820    -0.3410 h5         1 ERP       0.077800
     34 H2          -4.1370     2.5940    -0.0770 ha         1 ERP       0.143500
     35 H3          -2.8560    -1.5000    -0.0310 ha         1 ERP       0.143500
     36 H5           5.4390     1.3120    -0.7650 h2         1 ERP       0.128700
     37 H6           2.2790     4.5280    -0.2520 h5         1 ERP       0.054100
     38 H7           5.1540    -0.4580     1.6810 h1         1 ERP       0.045700
     39 H8          -6.4670     1.8650     0.0070 ha         1 ERP       0.135500
     40 H9          -5.1870    -2.2300     0.0270 ha         1 ERP       0.135500
     41 H10         -9.3830    -3.1050     1.3960 ha         1 ERP       0.131000
     42 H11          7.4750    -1.0560     1.6250 h1         1 ERP       0.051700
     43 H12        -11.1200    -1.8410     0.1620 ha         1 ERP       0.131000
     44 H13        -10.4790     0.1690    -1.1360 ha         1 ERP       0.131000
     45 H14         -8.1430     0.9020    -1.2080 ha         1 ERP       0.132500
     46 H15          7.4280    -1.6770    -1.0490 h1         1 ERP       0.091700
     47 H16          6.9070    -3.2990     0.6610 h1         1 ERP       0.022200
     48 H17          5.3450    -2.5630     1.0050 h1         1 ERP       0.022200
     49 H18          6.1100     1.3580     2.5970 ho         1 ERP       0.414000
     50 H19          8.8200     0.0010     0.0610 ho         1 ERP       0.409000
     51 H20          5.1420    -4.3000    -0.5000 ho         1 ERP       0.409000
     52 H4          -7.0480    -2.3650     1.3490 ha         1 ERP       0.132500
@<TRIPOS>BOND
     1     1     5 ar  
     2     1    15 ar  
     3     2     3 ar  
     4     2    15 ar  
     5     3     4 ar  
     6     3    28 1   
     7     4     5 ar  
     8     4    27 1   
     9     5    14 1   
    10     6    27 2   
    11     6    28 1   
    12     6    33 1   
    13     7     8 1   
    14     7    14 3   
    15     8     9 ar  
    16     8    11 ar  
    17     9    17 ar  
    18     9    34 1   
    19    10    17 ar  
    20    10    18 ar  
    21    10    19 1   
    22    11    18 ar  
    23    11    35 1   
    24    12    19 ar  
    25    12    20 ar  
    26    12    52 1   
    27    13    16 1   
    28    13    28 1   
    29    13    31 1   
    30    13    36 1   
    31    15    37 1   
    32    16    21 1   
    33    16    29 1   
    34    16    38 1   
    35    17    39 1   
    36    18    40 1   
    37    19    24 ar  
    38    20    22 ar  
    39    20    41 1   
    40    21    25 1   
    41    21    30 1   
    42    21    42 1   
    43    22    23 ar  
    44    22    43 1   
    45    23    24 ar  
    46    23    44 1   
    47    24    45 1   
    48    25    26 1   
    49    25    31 1   
    50    25    46 1   
    51    26    32 1   
    52    26    47 1   
    53    26    48 1   
    54    29    49 1   
    55    30    50 1   
    56    32    51 1   
@<TRIPOS>SUBSTRUCTURE
     1 ERP         1 TEMP              0 ****  ****    0 ROOT
