@<TRIPOS>MOLECULE
ERR
   53    57     1     0     0
SMALL
bcc


@<TRIPOS>ATOM
      1 C24         18.3170    67.8740    43.8460 cc         1 ERR       0.450200
      2 C26         18.2540    69.5220    40.8240 cc         1 ERR       0.097700
      3 C28         19.2050    69.7190    43.0240 cd         1 ERR       0.366500
      4 C30         19.7090    71.3100    41.5130 cc         1 ERR       0.435200
      5 C31         18.9220    70.6820    40.5280 cd         1 ERR      -0.306300
      6 N23         17.8880    67.9410    42.5870 nd         1 ERR      -0.587100
      7 C20         18.6050    68.5610    35.8400 c3         1 ERR       0.121200
      8 C16         17.8420    68.7500    38.5340 ca         1 ERR      -0.208500
      9 C17         17.4070    68.8110    39.8560 ca         1 ERR       0.010000
     10 C22         13.7090    67.1000    40.8480 c3         1 ERR       0.121200
     11 C21         15.2240    65.6140    36.8350 c3         1 ERR       0.126700
     12 C13         15.3850    67.6530    39.2660 ca         1 ERR       0.150600
     13 C12         16.1810    68.2650    40.2280 ca         1 ERR      -0.208500
     14 C10         16.0220    62.5110    47.0600 c3         1 ERR       0.035600
     15 C01         17.5000    64.0580    48.3660 cc         1 ERR      -0.112100
     16 C02         18.1890    65.2170    48.1600 cd         1 ERR      -0.183200
     17 C03         17.9380    65.6030    46.8080 ca         1 ERR      -0.106800
     18 C04         17.0850    64.6180    46.2600 ca         1 ERR      -0.039200
     19 C06         18.3430    66.6740    46.0110 ca         1 ERR      -0.050000
     20 C07         17.9060    66.7550    44.6970 ca         1 ERR      -0.139900
     21 C08         17.0550    65.7540    44.1760 ca         1 ERR      -0.083000
     22 C09         16.6390    64.6860    44.9400 ca         1 ERR      -0.154000
     23 C14         15.8120    67.5890    37.9360 ca         1 ERR       0.044100
     24 C15         17.0470    68.1320    37.5740 ca         1 ERR       0.150600
     25 C25         19.1440    68.9560    44.1750 cc         1 ERR      -0.316600
     26 N05         16.8320    63.6930    47.2280 na         1 ERR      -0.058400
     27 N27         18.4150    69.0550    42.0920 na         1 ERR       0.076200
     28 N29         19.8510    70.8560    42.7290 nd         1 ERR      -0.636000
     29 O11         15.0240    67.0140    36.9960 os         1 ERR      -0.305900
     30 O18         14.1900    67.0970    39.5180 os         1 ERR      -0.299900
     31 O19         17.3790    68.0080    36.2790 os         1 ERR      -0.299900
     32 H1          20.2270    72.2300    41.2670 h4         1 ERR       0.029100
     33 H2          18.8240    71.1290    39.5500 ha         1 ERR       0.159000
     34 H3          18.6710    68.3520    34.7750 h1         1 ERR       0.043867
     35 H4          18.6390    69.6430    35.9880 h1         1 ERR       0.043867
     36 H5          19.4620    68.1070    36.3420 h1         1 ERR       0.043867
     37 H6          18.8070    69.1610    38.2740 ha         1 ERR       0.151500
     38 H7          12.7550    66.5810    40.8300 h1         1 ERR       0.043867
     39 H8          14.3840    66.5720    41.5280 h1         1 ERR       0.043867
     40 H9          13.5510    68.1140    41.2240 h1         1 ERR       0.043867
     41 H10         14.5420    65.2810    36.0550 h1         1 ERR       0.035367
     42 H11         16.2470    65.3860    36.5270 h1         1 ERR       0.035367
     43 H12         15.0010    65.0660    37.7530 h1         1 ERR       0.035367
     44 H13         15.8590    68.3220    41.2560 ha         1 ERR       0.151500
     45 H14         15.9410    61.9970    48.0140 h1         1 ERR       0.048700
     46 H15         15.0200    62.7720    46.7230 h1         1 ERR       0.048700
     47 H16         16.4690    61.8290    46.3360 h1         1 ERR       0.048700
     48 H17         17.4270    63.4490    49.2540 h4         1 ERR       0.160000
     49 H18         18.7980    65.7320    48.8860 ha         1 ERR       0.157000
     50 H19         18.9930    67.4340    46.4270 ha         1 ERR       0.136000
     51 H20         16.7220    65.8310    43.1500 ha         1 ERR       0.143000
     52 H21         15.9890    63.9300    44.5170 ha         1 ERR       0.132000
     53 H22         19.6430    69.1710    45.1050 ha         1 ERR       0.178000
@<TRIPOS>BOND
     1     1     6 2   
     2     1    20 1   
     3     1    25 1   
     4     2     5 2   
     5     2     9 1   
     6     2    27 1   
     7     3    25 2   
     8     3    27 1   
     9     3    28 1   
    10     4     5 1   
    11     4    28 2   
    12     4    32 1   
    13     5    33 1   
    14     6    27 1   
    15     7    31 1   
    16     7    34 1   
    17     7    35 1   
    18     7    36 1   
    19     8     9 ar  
    20     8    24 ar  
    21     8    37 1   
    22     9    13 ar  
    23    10    30 1   
    24    10    38 1   
    25    10    39 1   
    26    10    40 1   
    27    11    29 1   
    28    11    41 1   
    29    11    42 1   
    30    11    43 1   
    31    12    13 ar  
    32    12    23 ar  
    33    12    30 1   
    34    13    44 1   
    35    14    26 1   
    36    14    45 1   
    37    14    46 1   
    38    14    47 1   
    39    15    16 2   
    40    15    26 1   
    41    15    48 1   
    42    16    17 1   
    43    16    49 1   
    44    17    18 ar  
    45    17    19 ar  
    46    18    22 ar  
    47    18    26 1   
    48    19    20 ar  
    49    19    50 1   
    50    20    21 ar  
    51    21    22 ar  
    52    21    51 1   
    53    22    52 1   
    54    23    24 ar  
    55    23    29 1   
    56    24    31 1   
    57    25    53 1   
@<TRIPOS>SUBSTRUCTURE
     1 ERR         1 TEMP              0 ****  ****    0 ROOT
