@<TRIPOS>MOLECULE
ERR
   53    57     1     0     0
SMALL
No Charge or Current Charge


@<TRIPOS>ATOM
      1 C24         18.1910    67.6900    43.8960 cc         1 ERR       0.450200
      2 C26         18.1850    69.3190    40.7870 cc         1 ERR       0.047000
      3 C28         18.9710    69.5530    43.0450 cd         1 ERR       0.366500
      4 C30         19.4840    71.1860    41.6890 cc         1 ERR       0.369900
      5 C31         18.8200    70.5540    40.6430 cd         1 ERR      -0.223000
      6 N23         17.7880    67.6360    42.6290 nd         1 ERR      -0.587100
      7 C20         19.0810    68.8540    35.6740 c3         1 ERR       0.144400
      8 C16         17.9970    68.7620    38.3620 ca         1 ERR      -0.190500
      9 C17         17.4620    68.7120    39.6600 ca         1 ERR       0.010000
     10 C22         13.7120    66.7440    40.3360 c3         1 ERR       0.144400
     11 C21         14.2000    66.3000    36.3220 c3         1 ERR       0.149900
     12 C13         15.5150    67.4830    38.7930 ca         1 ERR       0.150600
     13 C12         16.2260    68.0750    39.8620 ca         1 ERR      -0.190500
     14 C10         16.3890    62.4300    47.6530 c3         1 ERR       0.064900
     15 C01         17.7580    64.2260    48.9030 cc         1 ERR      -0.162100
     16 C02         18.2970    65.4300    48.4680 cd         1 ERR      -0.233200
     17 C03         18.0010    65.6450    47.0740 ca         1 ERR      -0.106800
     18 C04         17.2790    64.5570    46.6760 ca         1 ERR      -0.039200
     19 C06         18.3270    66.6950    46.2080 ca         1 ERR      -0.032000
     20 C07         17.8830    66.6180    44.8600 ca         1 ERR      -0.139900
     21 C08         17.1290    65.4770    44.4530 ca         1 ERR      -0.065000
     22 C09         16.8210    64.4380    45.3580 ca         1 ERR      -0.136000
     23 C14         16.0640    67.5380    37.4740 ca         1 ERR       0.044100
     24 C15         17.3090    68.1820    37.2750 ca         1 ERR       0.150600
     25 C25         18.9270    68.8570    44.1940 cc         1 ERR      -0.366600
     26 N05         17.1250    63.6990    47.7600 na         1 ERR      -0.087700
     27 N27         18.2760    68.8240    42.0900 na         1 ERR       0.126900
     28 N29         19.6230    70.7610    42.9470 nd         1 ERR      -0.636000
     29 O11         15.4600    66.9940    36.3380 os         1 ERR      -0.329100
     30 O18         14.3000    66.8600    39.0280 os         1 ERR      -0.323100
     31 O19         17.8270    68.2230    35.9890 os         1 ERR      -0.323100
     32 H1          19.9670    72.1430    41.5420 h4         1 ERR       0.029100
     33 H2          18.7940    71.0620    39.6870 ha         1 ERR       0.141000
     34 H3          19.2890    68.7680    34.6000 h1         1 ERR       0.043867
     35 H4          19.0560    69.9210    35.9300 h1         1 ERR       0.043867
     36 H5          19.9060    68.3780    36.2180 h1         1 ERR       0.043867
     37 H6          18.9590    69.2410    38.2140 ha         1 ERR       0.133500
     38 H7          12.7600    66.2020    40.2770 h1         1 ERR       0.043867
     39 H8          14.3750    66.1930    41.0160 h1         1 ERR       0.043867
     40 H9          13.5100    67.7350    40.7630 h1         1 ERR       0.043867
     41 H10         13.9610    65.9780    35.3010 h1         1 ERR       0.035367
     42 H11         14.2370    65.4040    36.9550 h1         1 ERR       0.035367
     43 H12         13.3880    66.9530    36.6650 h1         1 ERR       0.035367
     44 H13         15.8210    68.0600    40.8680 ha         1 ERR       0.133500
     45 H14         16.3920    61.9160    48.6220 h1         1 ERR       0.048700
     46 H15         15.3530    62.6300    47.3540 h1         1 ERR       0.048700
     47 H16         16.8680    61.7890    46.9030 h1         1 ERR       0.048700
     48 H17         17.7700    63.7300    49.8700 h4         1 ERR       0.210000
     49 H18         18.8630    66.1130    49.0990 ha         1 ERR       0.207000
     50 H19         18.9040    67.5350    46.5810 ha         1 ERR       0.118000
     51 H20         16.7760    65.3890    43.4280 ha         1 ERR       0.125000
     52 H21         16.2460    63.5740    45.0360 ha         1 ERR       0.114000
     53 H22         19.3660    69.1360    45.1410 ha         1 ERR       0.228000
@<TRIPOS>BOND
     1     1     6 2   
     2     1    20 1   
     3     1    25 1   
     4     2     5 2   
     5     2     9 1   
     6     2    27 1   
     7     3    25 2   
     8     3    27 1   
     9     3    28 1   
    10     4     5 1   
    11     4    28 2   
    12     4    32 1   
    13     5    33 1   
    14     6    27 1   
    15     7    31 1   
    16     7    34 1   
    17     7    35 1   
    18     7    36 1   
    19     8     9 ar  
    20     8    24 ar  
    21     8    37 1   
    22     9    13 ar  
    23    10    30 1   
    24    10    38 1   
    25    10    39 1   
    26    10    40 1   
    27    11    29 1   
    28    11    41 1   
    29    11    42 1   
    30    11    43 1   
    31    12    13 ar  
    32    12    23 ar  
    33    12    30 1   
    34    13    44 1   
    35    14    26 1   
    36    14    45 1   
    37    14    46 1   
    38    14    47 1   
    39    15    16 2   
    40    15    26 1   
    41    15    48 1   
    42    16    17 1   
    43    16    49 1   
    44    17    18 ar  
    45    17    19 ar  
    46    18    22 ar  
    47    18    26 1   
    48    19    20 ar  
    49    19    50 1   
    50    20    21 ar  
    51    21    22 ar  
    52    21    51 1   
    53    22    52 1   
    54    23    24 ar  
    55    23    29 1   
    56    24    31 1   
    57    25    53 1   
@<TRIPOS>SUBSTRUCTURE
     1 ERR         1 TEMP              0 ****  ****    0 ROOT
