@<TRIPOS>MOLECULE
ERS
   54    58     1     0     0
SMALL
No Charge or Current Charge


@<TRIPOS>ATOM
      1 N1          -0.9090     1.5520    -1.6490 nb         1 ERS      -0.312000
      2 N3           1.4790     1.4440    -1.9990 nb         1 ERS      -0.212000
      3 C4           1.6340     1.1690    -0.6910 ca         1 ERS       0.139500
      4 C5           0.5720     1.0750     0.1770 ca         1 ERS      -0.089600
      5 C6          -0.7400     1.2700    -0.3370 ca         1 ERS       0.459900
      6 C8           2.3380     0.7390     1.3770 cc         1 ERS       0.410700
      7 C20         -2.1490     0.0210     1.3570 c6         1 ERS       0.210800
      8 C21         -3.1570    -1.0050     0.7410 c6         1 ERS       0.176300
      9 C24         -3.1990     1.8480     0.0410 c6         1 ERS       0.210800
     10 C26         -6.8740    -0.5020     0.2140 ca         1 ERS      -0.159500
     11 C28         -8.0060    -2.6190    -0.1800 ca         1 ERS      -0.143000
     12 C1           4.1370     0.9740    -0.4250 c5         1 ERS       0.312300
     13 C2           0.2050     1.6220    -2.4110 ca         1 ERS       0.184900
     14 C10          5.2830     1.3420     0.5930 c5         1 ERS       0.137300
     15 C23         -4.2020     0.8310    -0.5940 c6         1 ERS       0.176300
     16 C25         -5.6190    -1.1340     0.1170 ca         1 ERS       0.293000
     17 C27         -8.0630    -1.2380     0.0670 ca         1 ERS      -0.083000
     18 C29         -6.7620    -3.2620    -0.2770 ca         1 ERS      -0.083000
     19 C3           6.4600     0.5000     0.0270 c5         1 ERS       0.101300
     20 C30         -5.5750    -2.5230    -0.1280 ca         1 ERS      -0.159500
     21 C7           5.6910    -0.8090    -0.3480 c5         1 ERS       0.126300
     22 C9           5.3480    -1.7210     0.8720 c3         1 ERS       0.145600
     23 N19         -1.9130     1.1970     0.4600 nh         1 ERS      -0.764300
     24 N22         -4.4340    -0.3730     0.2710 nh         1 ERS      -0.793400
     25 N7           1.0000     0.8100     1.4860 nd         1 ERS      -0.566100
     26 N9           2.7540     0.9520     0.0600 na         1 ERS      -0.291300
     27 O2           5.6320     2.7310     0.6060 oh         1 ERS      -0.668000
     28 O3           7.0560     1.1560    -1.1110 oh         1 ERS      -0.683000
     29 O4           4.4750    -0.3250    -0.9740 os         1 ERS      -0.425000
     30 O5           4.8390    -2.9940     0.4400 oh         1 ERS      -0.697000
     31 H1           3.0280     0.5410     2.1880 h5         1 ERS       0.064800
     32 H2          -2.5440     0.3670     2.3240 h1         1 ERS       0.075950
     33 H3          -1.2140    -0.5110     1.5800 h1         1 ERS       0.075950
     34 H4          -2.6640    -1.5100    -0.1030 h1         1 ERS       0.048450
     35 H5          -3.3700    -1.7720     1.5010 h1         1 ERS       0.048450
     36 H6          -3.0220     2.6730    -0.6640 h1         1 ERS       0.075950
     37 H7          -3.6790     2.3040     0.9200 h1         1 ERS       0.075950
     38 H9          -8.9250    -3.1900    -0.2950 ha         1 ERS       0.113000
     39 H10          4.1520     1.7070    -1.2430 h2         1 ERS       0.132700
     40 H11          0.0620     1.8470    -3.4670 h5         1 ERS       0.046100
     41 H12          5.0380     1.0110     1.6100 h1         1 ERS       0.042700
     42 H13         -5.1450     1.3590    -0.7930 h1         1 ERS       0.048450
     43 H14         -3.8040     0.5110    -1.5680 h1         1 ERS       0.048450
     44 H15         -9.0260    -0.7380     0.1460 ha         1 ERS       0.109000
     45 H16         -6.7160    -4.3320    -0.4700 ha         1 ERS       0.109000
     46 H17          7.2200     0.3100     0.7980 h1         1 ERS       0.050700
     47 H18         -4.6220    -3.0360    -0.2170 ha         1 ERS       0.112500
     48 H19          6.2580    -1.4100    -1.0720 h1         1 ERS       0.089700
     49 H20          6.2620    -1.8700     1.4620 h1         1 ERS       0.019200
     50 H21          4.6150    -1.2210     1.5180 h1         1 ERS       0.019200
     51 H22          6.3360     2.8000    -0.0870 ho         1 ERS       0.511000
     52 H23          7.7740     0.5700    -1.4520 ho         1 ERS       0.507000
     53 H24          4.6310    -3.5150     1.2520 ho         1 ERS       0.506000
     54 H8          -6.9300     0.5630     0.4170 ha         1 ERS       0.112500
@<TRIPOS>BOND
     1     1     5 ar  
     2     1    13 ar  
     3     2     3 ar  
     4     2    13 ar  
     5     3     4 ar  
     6     3    26 1   
     7     4     5 ar  
     8     4    25 1   
     9     5    23 1   
    10     6    25 2   
    11     6    26 1   
    12     6    31 1   
    13     7     8 1   
    14     7    23 1   
    15     7    32 1   
    16     7    33 1   
    17     8    24 1   
    18     8    34 1   
    19     8    35 1   
    20     9    15 1   
    21     9    23 1   
    22     9    36 1   
    23     9    37 1   
    24    10    16 ar  
    25    10    17 ar  
    26    10    54 1   
    27    11    17 ar  
    28    11    18 ar  
    29    11    38 1   
    30    12    14 1   
    31    12    26 1   
    32    12    29 1   
    33    12    39 1   
    34    13    40 1   
    35    14    19 1   
    36    14    27 1   
    37    14    41 1   
    38    15    24 1   
    39    15    42 1   
    40    15    43 1   
    41    16    20 ar  
    42    16    24 1   
    43    17    44 1   
    44    18    20 ar  
    45    18    45 1   
    46    19    21 1   
    47    19    28 1   
    48    19    46 1   
    49    20    47 1   
    50    21    22 1   
    51    21    29 1   
    52    21    48 1   
    53    22    30 1   
    54    22    49 1   
    55    22    50 1   
    56    27    51 1   
    57    28    52 1   
    58    30    53 1   
@<TRIPOS>SUBSTRUCTURE
     1 ERS         1 TEMP              0 ****  ****    0 ROOT
