@<TRIPOS>MOLECULE
ERS
   54    58     1     0     0
SMALL
bcc


@<TRIPOS>ATOM
      1 N1          -0.7250     2.3330    -1.3960 nb         1 ERS      -0.838000
      2 N3           1.6150     2.1110    -1.7740 nb         1 ERS      -0.738000
      3 C4           1.5800     1.2210    -0.7870 ca         1 ERS       0.467800
      4 C5           0.4670     0.8180    -0.0540 ca         1 ERS      -0.220200
      5 C6          -0.7610     1.4370    -0.3990 ca         1 ERS       0.788200
      6 C8           2.1130    -0.2940     0.6950 cc         1 ERS       0.410700
      7 C20         -2.1620     0.2560     1.2690 c6         1 ERS       0.210800
      8 C21         -3.1420    -0.8240     0.8380 c6         1 ERS       0.176300
      9 C24         -3.1790     1.8130    -0.2510 c6         1 ERS       0.210800
     10 C26         -6.7580    -0.4970    -0.0120 ca         1 ERS      -0.177500
     11 C28         -7.8140    -2.6640     0.1000 ca         1 ERS      -0.161000
     12 C1           4.0040     0.5750    -0.7210 c5         1 ERS       0.259800
     13 C2           0.4160     2.6120    -2.0110 ca         1 ERS       0.710900
     14 C10          4.9280     1.2310     0.3100 c5         1 ERS       0.114100
     15 C23         -4.1590     0.7410    -0.6900 c6         1 ERS       0.176300
     16 C25         -5.5000    -1.0570     0.2600 ca         1 ERS       0.154600
     17 C27         -7.8890    -1.2890    -0.0950 ca         1 ERS      -0.101000
     18 C29         -6.5780    -3.2280     0.3740 ca         1 ERS      -0.101000
     19 C3           6.2540     0.5280     0.0210 c5         1 ERS       0.078100
     20 C30         -5.4330    -2.4430     0.4460 ca         1 ERS      -0.177500
     21 C7           5.7600    -0.8870    -0.2780 c5         1 ERS       0.103100
     22 C9           5.6310    -1.7350     0.9730 c3         1 ERS       0.122400
     23 N19         -1.9420     1.2050     0.1980 nh         1 ERS      -0.764300
     24 N22         -4.3790    -0.2320     0.3720 nh         1 ERS      -0.655000
     25 N7           0.8360    -0.1360     0.8650 nd         1 ERS      -0.566100
     26 N9           2.6260     0.5010    -0.2900 na         1 ERS      -0.262000
     27 O2           4.9020     2.6120     0.1510 oh         1 ERS      -0.545800
     28 O3           6.8290     1.1440    -1.1000 oh         1 ERS      -0.560800
     29 O4           4.4950    -0.7170    -0.9230 os         1 ERS      -0.378600
     30 O5           5.0620    -2.9700     0.6210 oh         1 ERS      -0.574800
     31 H1           2.7270    -0.9890     1.2470 h5         1 ERS       0.064800
     32 H2          -2.5760     0.7940     2.1280 h1         1 ERS       0.075950
     33 H3          -1.2300    -0.2030     1.5810 h1         1 ERS       0.075950
     34 H4          -2.6700    -1.4610     0.0750 h1         1 ERS       0.048450
     35 H5          -3.3440    -1.4500     1.7080 h1         1 ERS       0.048450
     36 H6          -2.9830     2.4950    -1.0720 h1         1 ERS       0.075950
     37 H7          -3.6100     2.3870     0.5750 h1         1 ERS       0.075950
     38 H9          -8.7010    -3.2810     0.0410 ha         1 ERS       0.131000
     39 H10          3.9990     1.1550    -1.6500 h2         1 ERS       0.132700
     40 H11          0.3510     3.3460    -2.8080 h5         1 ERS       0.046100
     41 H12          4.6050     0.9400     1.3200 h1         1 ERS       0.042700
     42 H13         -5.0950     1.2280    -0.9560 h1         1 ERS       0.048450
     43 H14         -3.7800     0.2490    -1.5980 h1         1 ERS       0.048450
     44 H15         -8.8440    -0.8230    -0.3020 ha         1 ERS       0.127000
     45 H16         -6.4890    -4.2960     0.5230 ha         1 ERS       0.127000
     46 H17          6.9290     0.5450     0.8870 h1         1 ERS       0.050700
     47 H18         -4.4880    -2.9310     0.6400 ha         1 ERS       0.130500
     48 H19          6.4250    -1.4000    -0.9810 h1         1 ERS       0.089700
     49 H20          6.6360    -1.8500     1.4010 h1         1 ERS       0.019200
     50 H21          5.0260    -1.2130     1.7270 h1         1 ERS       0.019200
     51 H22          5.3250     3.0200     0.9130 ho         1 ERS       0.412000
     52 H23          7.6330     0.6680    -1.3320 ho         1 ERS       0.408000
     53 H24          4.9390    -3.4830     1.4250 ho         1 ERS       0.407000
     54 H8          -6.8610     0.5730    -0.1360 ha         1 ERS       0.130500
@<TRIPOS>BOND
     1     1     5 ar  
     2     1    13 ar  
     3     2     3 ar  
     4     2    13 ar  
     5     3     4 ar  
     6     3    26 1   
     7     4     5 ar  
     8     4    25 1   
     9     5    23 1   
    10     6    25 2   
    11     6    26 1   
    12     6    31 1   
    13     7     8 1   
    14     7    23 1   
    15     7    32 1   
    16     7    33 1   
    17     8    24 1   
    18     8    34 1   
    19     8    35 1   
    20     9    15 1   
    21     9    23 1   
    22     9    36 1   
    23     9    37 1   
    24    10    16 ar  
    25    10    17 ar  
    26    10    54 1   
    27    11    17 ar  
    28    11    18 ar  
    29    11    38 1   
    30    12    14 1   
    31    12    26 1   
    32    12    29 1   
    33    12    39 1   
    34    13    40 1   
    35    14    19 1   
    36    14    27 1   
    37    14    41 1   
    38    15    24 1   
    39    15    42 1   
    40    15    43 1   
    41    16    20 ar  
    42    16    24 1   
    43    17    44 1   
    44    18    20 ar  
    45    18    45 1   
    46    19    21 1   
    47    19    28 1   
    48    19    46 1   
    49    20    47 1   
    50    21    22 1   
    51    21    29 1   
    52    21    48 1   
    53    22    30 1   
    54    22    49 1   
    55    22    50 1   
    56    27    51 1   
    57    28    52 1   
    58    30    53 1   
@<TRIPOS>SUBSTRUCTURE
     1 ERS         1 TEMP              0 ****  ****    0 ROOT
