@<TRIPOS>MOLECULE
ERT
   80    84     1     0     0
SMALL
No Charge or Current Charge


@<TRIPOS>ATOM
      1 O11         -1.9500     3.3110    -0.7110 oh         1 ERT      -0.545100
      2 C11         -1.4770     2.1160    -0.2460 ca         1 ERT       0.187100
      3 C18         -2.2600     0.9400    -0.3780 ca         1 ERT      -0.221600
      4 C17         -1.7600    -0.2930     0.1270 ca         1 ERT      -0.233600
      5 C6          -0.4780    -0.3160     0.7390 ca         1 ERT       0.208100
      6 O6           0.0180    -1.4850     1.2410 oh         1 ERT      -0.545100
      7 C5          -2.5890    -1.5670     0.0150 c          1 ERT       0.620300
      8 O5          -2.2120    -2.5770     0.6010 o          1 ERT      -0.555100
      9 C16         -3.8740    -1.5400    -0.7910 ca         1 ERT      -0.167600
     10 C4          -4.6090    -2.7290    -1.0670 ca         1 ERT       0.198100
     11 O4          -4.1350    -3.9530    -0.6280 os         1 ERT      -0.307100
     12 C40         -4.8190    -5.1960    -0.8680 c3         1 ERT       0.145900
     13 C3          -5.8140    -2.6580    -1.8020 ca         1 ERT      -0.200000
     14 C2          -6.2940    -1.4300    -2.2660 ca         1 ERT      -0.051000
     15 C15         -4.3640    -0.2990    -1.2800 ca         1 ERT      -0.085600
     16 C1          -5.5730    -0.2610    -2.0090 ca         1 ERT      -0.108000
     17 C12         -3.6200     0.9930    -1.0450 c          1 ERT       0.610300
     18 O12         -4.1060     2.0670    -1.3920 o          1 ERT      -0.568100
     19 C19         -0.2040     2.0820     0.3630 ca         1 ERT      -0.028300
     20 C10          0.5930     3.3970     0.5380 c6         1 ERT      -0.070400
     21 C21         -0.1060     4.3070     1.5700 c          1 ERT       0.602100
     22 O13         -0.7400     3.8620     2.5190 o          1 ERT      -0.490000
     23 O10         -0.0770     5.6390     1.2390 os         1 ERT      -0.429100
     24 C22         -0.7480     6.5700     2.1080 c3         1 ERT       0.150900
     25 C20          0.3040     0.8550     0.8480 ca         1 ERT      -0.045300
     26 C7           1.7180     0.7690     1.4520 c6         1 ERT       0.244600
     27 C8           2.2810     2.1380     1.9100 c6         1 ERT      -0.151400
     28 C9           2.1180     3.2250     0.8180 c6         1 ERT       0.213000
     29 C13          2.8220     4.5680     1.2270 c3         1 ERT      -0.099400
     30 C14          4.3630     4.5340     1.3890 c3         1 ERT      -0.090100
     31 O9           2.7470     2.7670    -0.3790 oh         1 ERT      -0.659000
     32 O7           2.5730     0.2120     0.4280 os         1 ERT      -0.487000
     33 C28          3.7870    -0.4170     0.8800 c6         1 ERT       0.386300
     34 C27          3.5860    -1.9350     1.0930 c6         1 ERT      -0.105400
     35 C26          3.3810    -2.6950    -0.2580 c6         1 ERT       0.196500
     36 N3           3.2360    -4.1860    -0.0550 n3         1 ERT      -0.698600
     37 C29          2.1420    -4.5670     0.8740 c3         1 ERT       0.150100
     38 C30          3.1280    -4.9480    -1.3250 c3         1 ERT       0.150100
     39 C25          4.5470    -2.2970    -1.2510 c6         1 ERT       0.147300
     40 O3           5.8310    -2.7770    -0.7870 oh         1 ERT      -0.693000
     41 C24          4.5670    -0.7440    -1.3840 c6         1 ERT       0.134300
     42 O2           4.8160    -0.1530    -0.0900 os         1 ERT      -0.463000
     43 C23          5.6610    -0.2140    -2.3450 c3         1 ERT      -0.095100
     44 H11         -2.8590     3.1340    -1.0690 ho         1 ERT       0.518000
     45 HO6         -0.7000    -2.1600     1.1270 ho         1 ERT       0.520000
     46 H401        -5.8190    -5.1850    -0.4170 h1         1 ERT       0.047700
     47 H402        -4.9160    -5.3870    -1.9440 h1         1 ERT       0.047700
     48 H403        -4.2570    -6.0280    -0.4250 h1         1 ERT       0.047700
     49 H4          -6.3950    -3.5470    -2.0260 ha         1 ERT       0.124000
     50 H3          -7.2230    -1.3850    -2.8310 ha         1 ERT       0.121000
     51 H2          -5.9620     0.6830    -2.3870 ha         1 ERT       0.144000
     52 H10          0.5720     3.9790    -0.3920 hc         1 ERT       0.116700
     53 H221        -0.6380     7.5930     1.7290 h1         1 ERT       0.048700
     54 H222        -1.8210     6.3440     2.1700 h1         1 ERT       0.048700
     55 H223        -0.3250     6.5350     3.1210 h1         1 ERT       0.048700
     56 H7           1.6990     0.0880     2.3160 h1         1 ERT       0.058700
     57 H81          3.3330     2.0280     2.2000 hc         1 ERT       0.068700
     58 H82          1.7580     2.4500     2.8240 hc         1 ERT       0.068700
     59 H131         2.4110     4.9340     2.1750 hc         1 ERT       0.052700
     60 H132         2.5890     5.3370     0.4800 hc         1 ERT       0.052700
     61 H141         4.6650     3.8750     2.2100 hc         1 ERT       0.036033
     62 H142         4.8530     4.1940     0.4690 hc         1 ERT       0.036033
     63 H143         4.7380     5.5390     1.6160 hc         1 ERT       0.036033
     64 HO9          2.8010     1.7830    -0.2770 ho         1 ERT       0.464000
     65 H1           4.0980     0.0290     1.8370 h2         1 ERT       0.065700
     66 H2'1         4.4520    -2.3440     1.6280 hc         1 ERT       0.071700
     67 H2'2         2.7240    -2.0720     1.7550 hc         1 ERT       0.071700
     68 H12          2.4460    -2.3180    -0.7000 h1         1 ERT       0.039700
     69 H7'1         2.0500    -5.6600     0.9380 h1         1 ERT       0.030033
     70 H7'2         2.3310    -4.2040     1.8910 h1         1 ERT       0.030033
     71 H7'3         1.1790    -4.1650     0.5300 h1         1 ERT       0.030033
     72 H8'1         4.0350    -4.8440    -1.9330 h1         1 ERT       0.030033
     73 H8'2         2.9970    -6.0200    -1.1250 h1         1 ERT       0.030033
     74 H8'3         2.2690    -4.6030    -1.9160 h1         1 ERT       0.030033
     75 H9           4.3300    -2.7110    -2.2450 h1         1 ERT       0.029700
     76 H15          6.1250    -2.1230    -0.1150 ho         1 ERT       0.496000
     77 H5           3.5940    -0.3990    -1.7650 h1         1 ERT       0.057700
     78 H6'1         5.5450    -0.6440    -3.3460 hc         1 ERT       0.044367
     79 H6'2         5.5960     0.8760    -2.4440 hc         1 ERT       0.044367
     80 H6'3         6.6700    -0.4560    -1.9900 hc         1 ERT       0.044367
@<TRIPOS>BOND
     1     1     2 1   
     2     1    44 1   
     3     2     3 ar  
     4     2    19 ar  
     5     3     4 ar  
     6     3    17 1   
     7     4     5 ar  
     8     4     7 1   
     9     5     6 1   
    10     5    25 ar  
    11     6    45 1   
    12     7     8 2   
    13     7     9 1   
    14     9    10 ar  
    15     9    15 ar  
    16    10    11 1   
    17    10    13 ar  
    18    11    12 1   
    19    12    46 1   
    20    12    47 1   
    21    12    48 1   
    22    13    14 ar  
    23    13    49 1   
    24    14    16 ar  
    25    14    50 1   
    26    15    16 ar  
    27    15    17 1   
    28    16    51 1   
    29    17    18 2   
    30    19    20 1   
    31    19    25 ar  
    32    20    21 1   
    33    20    28 1   
    34    20    52 1   
    35    21    22 2   
    36    21    23 1   
    37    23    24 1   
    38    24    53 1   
    39    24    54 1   
    40    24    55 1   
    41    25    26 1   
    42    26    27 1   
    43    26    32 1   
    44    26    56 1   
    45    27    28 1   
    46    27    57 1   
    47    27    58 1   
    48    28    29 1   
    49    28    31 1   
    50    29    30 1   
    51    29    59 1   
    52    29    60 1   
    53    30    61 1   
    54    30    62 1   
    55    30    63 1   
    56    31    64 1   
    57    32    33 1   
    58    33    34 1   
    59    33    42 1   
    60    33    65 1   
    61    34    35 1   
    62    34    66 1   
    63    34    67 1   
    64    35    36 1   
    65    35    39 1   
    66    35    68 1   
    67    36    37 1   
    68    36    38 1   
    69    37    69 1   
    70    37    70 1   
    71    37    71 1   
    72    38    72 1   
    73    38    73 1   
    74    38    74 1   
    75    39    40 1   
    76    39    41 1   
    77    39    75 1   
    78    40    76 1   
    79    41    42 1   
    80    41    43 1   
    81    41    77 1   
    82    43    78 1   
    83    43    79 1   
    84    43    80 1   
@<TRIPOS>SUBSTRUCTURE
     1 ERT         1 TEMP              0 ****  ****    0 ROOT
