@<TRIPOS>MOLECULE
ERT
   80    84     1     0     0
SMALL
abcg2


@<TRIPOS>ATOM
      1 O11         -1.8790     3.2310    -0.7970 oh         1 ERT      -0.545100
      2 C11         -1.4950     2.0460    -0.3370 ca         1 ERT       0.187100
      3 C18         -2.2800     0.9030    -0.4450 ca         1 ERT      -0.221600
      4 C17         -1.8280    -0.3230     0.0960 ca         1 ERT      -0.233600
      5 C6          -0.5940    -0.3690     0.7420 ca         1 ERT       0.208100
      6 O6          -0.1190    -1.4730     1.2980 oh         1 ERT      -0.545100
      7 C5          -2.6360    -1.5400    -0.0030 c          1 ERT       0.620300
      8 O5          -2.2110    -2.5890     0.4840 o          1 ERT      -0.555100
      9 C16         -3.9390    -1.4740    -0.6870 ca         1 ERT      -0.167600
     10 C4          -4.7640    -2.6130    -0.8340 ca         1 ERT       0.198100
     11 O4          -4.3420    -3.7710    -0.3360 os         1 ERT      -0.307100
     12 C40         -5.1360    -4.9350    -0.4990 c3         1 ERT       0.145900
     13 C3          -5.9890    -2.4920    -1.4980 ca         1 ERT      -0.200000
     14 C2          -6.3980    -1.2750    -2.0060 ca         1 ERT      -0.051000
     15 C15         -4.3870    -0.2490    -1.2160 ca         1 ERT      -0.085600
     16 C1          -5.6050    -0.1480    -1.8690 ca         1 ERT      -0.108000
     17 C12         -3.5720     0.9800    -1.0990 c          1 ERT       0.610300
     18 O12         -3.9940     2.0440    -1.5540 o          1 ERT      -0.568100
     19 C19         -0.2300     1.9860     0.2970 ca         1 ERT      -0.028300
     20 C10          0.5570     3.2720     0.3700 c6         1 ERT      -0.070400
     21 C21         -0.1350     4.1890     1.3650 c          1 ERT       0.602100
     22 O13         -0.5680     3.8210     2.4280 o          1 ERT      -0.490000
     23 O10         -0.2010     5.4360     0.9350 os         1 ERT      -0.429100
     24 C22         -0.7900     6.4030     1.8060 c3         1 ERT       0.150900
     25 C20          0.2030     0.8030     0.8420 ca         1 ERT      -0.045300
     26 C7           1.5410     0.6820     1.5190 c6         1 ERT       0.244600
     27 C8           2.1460     2.0370     1.8510 c6         1 ERT      -0.151400
     28 C9           2.0480     3.0460     0.7130 c6         1 ERT       0.213000
     29 C13          2.7450     4.3660     1.0770 c3         1 ERT      -0.099400
     30 C14          4.2610     4.2580     1.1850 c3         1 ERT      -0.090100
     31 O9           2.5920     2.5320    -0.4880 oh         1 ERT      -0.659000
     32 O7           2.3300    -0.0960     0.6400 os         1 ERT      -0.487000
     33 C28          3.5390    -0.6020     1.1440 c6         1 ERT       0.386300
     34 C27          3.5030    -2.1200     1.1340 c6         1 ERT      -0.105400
     35 C26          3.5030    -2.6750    -0.2900 c6         1 ERT       0.196500
     36 N3           3.4920    -4.1330    -0.2930 n3         1 ERT      -0.698600
     37 C29          2.2740    -4.6520     0.3010 c3         1 ERT       0.150100
     38 C30          3.6680    -4.6930    -1.6190 c3         1 ERT       0.150100
     39 C25          4.7030    -2.0820    -1.0320 c6         1 ERT       0.147300
     40 O3           5.8810    -2.6090    -0.4720 oh         1 ERT      -0.693000
     41 C24          4.6440    -0.5530    -0.9570 c6         1 ERT       0.134300
     42 O2           4.5950    -0.0860     0.3880 os         1 ERT      -0.463000
     43 C23          5.8340     0.1150    -1.6140 c3         1 ERT      -0.095100
     44 H11         -2.7690     3.1160    -1.2060 ho         1 ERT       0.518000
     45 HO6         -0.7890    -2.1840     1.1350 ho         1 ERT       0.520000
     46 H401        -6.1010    -4.8440     0.0020 h1         1 ERT       0.047700
     47 H402        -5.2980    -5.1700    -1.5530 h1         1 ERT       0.047700
     48 H403        -4.5760    -5.7450    -0.0390 h1         1 ERT       0.047700
     49 H4          -6.6340    -3.3490    -1.6230 ha         1 ERT       0.124000
     50 H3          -7.3500    -1.2080    -2.5150 ha         1 ERT       0.121000
     51 H2          -5.9340     0.8000    -2.2680 ha         1 ERT       0.144000
     52 H10          0.5370     3.7610    -0.6080 hc         1 ERT       0.116700
     53 H221        -0.7670     7.3440     1.2650 h1         1 ERT       0.048700
     54 H222        -1.8220     6.1460     2.0440 h1         1 ERT       0.048700
     55 H223        -0.2200     6.5020     2.7300 h1         1 ERT       0.048700
     56 H7           1.4040     0.1450     2.4670 h1         1 ERT       0.058700
     57 H81          3.1850     1.9000     2.1640 hc         1 ERT       0.068700
     58 H82          1.6350     2.4330     2.7310 hc         1 ERT       0.068700
     59 H131         2.3530     4.7420     2.0270 hc         1 ERT       0.052700
     60 H132         2.5020     5.1150     0.3190 hc         1 ERT       0.052700
     61 H141         4.5800     3.5540     1.9540 hc         1 ERT       0.036033
     62 H142         4.7160     3.9560     0.2400 hc         1 ERT       0.036033
     63 H143         4.6840     5.2280     1.4460 hc         1 ERT       0.036033
     64 HO9          3.3580     1.9880    -0.2800 ho         1 ERT       0.464000
     65 H1           3.7090    -0.2490     2.1670 h2         1 ERT       0.065700
     66 H2'1         4.3710    -2.5030     1.6760 hc         1 ERT       0.071700
     67 H2'2         2.6170    -2.4280     1.6880 hc         1 ERT       0.071700
     68 H12          2.6050    -2.2950    -0.8120 h1         1 ERT       0.039700
     69 H7'1         2.2530    -5.7370     0.1980 h1         1 ERT       0.030033
     70 H7'2         2.2230    -4.4340     1.3670 h1         1 ERT       0.030033
     71 H7'3         1.3580    -4.2530    -0.1650 h1         1 ERT       0.030033
     72 H8'1         4.6620    -4.4800    -2.0100 h1         1 ERT       0.030033
     73 H8'2         3.5730    -5.7780    -1.5660 h1         1 ERT       0.030033
     74 H8'3         2.9290    -4.3340    -2.3530 h1         1 ERT       0.030033
     75 H9           4.6270    -2.3270    -2.1000 h1         1 ERT       0.029700
     76 H15          6.6230    -2.3770    -1.0380 ho         1 ERT       0.496000
     77 H5           3.7360    -0.2430    -1.4920 h1         1 ERT       0.057700
     78 H6'1         5.9140    -0.1950    -2.6570 hc         1 ERT       0.044367
     79 H6'2         5.7270     1.2000    -1.6030 hc         1 ERT       0.044367
     80 H6'3         6.7700    -0.1290    -1.1090 hc         1 ERT       0.044367
@<TRIPOS>BOND
     1     1     2 1   
     2     1    44 1   
     3     2     3 ar  
     4     2    19 ar  
     5     3     4 ar  
     6     3    17 1   
     7     4     5 ar  
     8     4     7 1   
     9     5     6 1   
    10     5    25 ar  
    11     6    45 1   
    12     7     8 2   
    13     7     9 1   
    14     9    10 ar  
    15     9    15 ar  
    16    10    11 1   
    17    10    13 ar  
    18    11    12 1   
    19    12    46 1   
    20    12    47 1   
    21    12    48 1   
    22    13    14 ar  
    23    13    49 1   
    24    14    16 ar  
    25    14    50 1   
    26    15    16 ar  
    27    15    17 1   
    28    16    51 1   
    29    17    18 2   
    30    19    20 1   
    31    19    25 ar  
    32    20    21 1   
    33    20    28 1   
    34    20    52 1   
    35    21    22 2   
    36    21    23 1   
    37    23    24 1   
    38    24    53 1   
    39    24    54 1   
    40    24    55 1   
    41    25    26 1   
    42    26    27 1   
    43    26    32 1   
    44    26    56 1   
    45    27    28 1   
    46    27    57 1   
    47    27    58 1   
    48    28    29 1   
    49    28    31 1   
    50    29    30 1   
    51    29    59 1   
    52    29    60 1   
    53    30    61 1   
    54    30    62 1   
    55    30    63 1   
    56    31    64 1   
    57    32    33 1   
    58    33    34 1   
    59    33    42 1   
    60    33    65 1   
    61    34    35 1   
    62    34    66 1   
    63    34    67 1   
    64    35    36 1   
    65    35    39 1   
    66    35    68 1   
    67    36    37 1   
    68    36    38 1   
    69    37    69 1   
    70    37    70 1   
    71    37    71 1   
    72    38    72 1   
    73    38    73 1   
    74    38    74 1   
    75    39    40 1   
    76    39    41 1   
    77    39    75 1   
    78    40    76 1   
    79    41    42 1   
    80    41    43 1   
    81    41    77 1   
    82    43    78 1   
    83    43    79 1   
    84    43    80 1   
@<TRIPOS>SUBSTRUCTURE
     1 ERT         1 TEMP              0 ****  ****    0 ROOT
