@<TRIPOS>MOLECULE
ERU
   67    66     1     0     0
SMALL
bcc


@<TRIPOS>ATOM
      1 C22         12.8230     3.0320    -0.1620 c3         1 ERU      -0.088100
      2 C21         11.3350     2.9930    -0.4830 c3         1 ERU      -0.074400
      3 C20         10.6810     1.6720    -0.0980 c3         1 ERU      -0.075400
      4 C19          9.1920     1.6170    -0.4180 c3         1 ERU      -0.074400
      5 C18          8.5460     0.2910    -0.0360 c3         1 ERU      -0.074400
      6 C17          7.0650     0.2130    -0.3860 c3         1 ERU      -0.074400
      7 C16          6.4380    -1.1230    -0.0110 c3         1 ERU      -0.073400
      8 C15          4.9700    -1.2380    -0.4210 c3         1 ERU      -0.042200
      9 C14          4.4110    -2.5970    -0.1300 c2         1 ERU      -0.164200
     10 C13          3.2850    -2.9030     0.5130 c2         1 ERU      -0.168200
     11 C12          2.2550    -1.9690     1.0670 c3         1 ERU      -0.042200
     12 C11          0.9350    -2.0760     0.3000 c3         1 ERU      -0.073400
     13 C10         -0.1830    -1.2290     0.8950 c3         1 ERU      -0.074400
     14 C9          -1.4870    -1.3510     0.1170 c3         1 ERU      -0.075400
     15 C8          -2.6360    -0.5480     0.7140 c3         1 ERU      -0.073400
     16 C7          -3.9330    -0.6990    -0.0710 c3         1 ERU      -0.075400
     17 C6          -5.1050     0.0660     0.5310 c3         1 ERU      -0.073400
     18 C5          -6.3970    -0.1050    -0.2590 c3         1 ERU      -0.074400
     19 C4          -7.5810     0.6350     0.3500 c3         1 ERU      -0.076400
     20 C3          -8.8680     0.4500    -0.4440 c3         1 ERU      -0.063400
     21 C2         -10.0370     1.1850     0.1900 c3         1 ERU      -0.159400
     22 C1         -11.3520     1.0170    -0.5450 c          1 ERU       0.670100
     23 O          -11.4660     0.3440    -1.5600 o          1 ERU      -0.604100
     24 N          -12.3880     1.6700     0.0080 nt         1 ERU      -0.683000
     25 H22         13.2690     3.9880    -0.4390 hc         1 ERU       0.031367
     26 H22A        12.9990     2.8820     0.9050 hc         1 ERU       0.031367
     27 H22B        13.3610     2.2480    -0.6970 hc         1 ERU       0.031367
     28 H21         10.8260     3.8120     0.0350 hc         1 ERU       0.036700
     29 H21A        11.1860     3.1720    -1.5520 hc         1 ERU       0.036700
     30 H20         11.1910     0.8520    -0.6160 hc         1 ERU       0.036700
     31 H20A        10.8290     1.4910     0.9720 hc         1 ERU       0.036700
     32 H19          8.6780     2.4360     0.0990 hc         1 ERU       0.036700
     33 H19A         9.0460     1.7970    -1.4890 hc         1 ERU       0.036700
     34 H18          9.0760    -0.5260    -0.5370 hc         1 ERU       0.037200
     35 H18A         8.6750     0.1210     1.0390 hc         1 ERU       0.037200
     36 H17          6.5270     1.0260     0.1140 hc         1 ERU       0.037200
     37 H17A         6.9390     0.3830    -1.4620 hc         1 ERU       0.037200
     38 H16          7.0040    -1.9320    -0.4850 hc         1 ERU       0.039200
     39 H16A         6.5280    -1.2820     1.0680 hc         1 ERU       0.039200
     40 H15          4.3870    -0.4560     0.0700 hc         1 ERU       0.044700
     41 H15A         4.8940    -1.0440    -1.4980 hc         1 ERU       0.044700
     42 H14          5.0150    -3.4250    -0.4940 ha         1 ERU       0.114000
     43 H13          3.0460    -3.9580     0.6240 ha         1 ERU       0.114000
     44 H12          2.0720    -2.2200     2.1170 hc         1 ERU       0.043700
     45 H12A         2.6040    -0.9340     1.0520 hc         1 ERU       0.043700
     46 H11          1.1030    -1.7840    -0.7420 hc         1 ERU       0.039200
     47 H11A         0.6180    -3.1240     0.2740 hc         1 ERU       0.039200
     48 H10         -0.3500    -1.5290     1.9360 hc         1 ERU       0.037200
     49 H10A         0.1290    -0.1800     0.9270 hc         1 ERU       0.037200
     50 H9          -1.3220    -1.0330    -0.9190 hc         1 ERU       0.037700
     51 H9A         -1.7760    -2.4070     0.0650 hc         1 ERU       0.037700
     52 H8          -2.7990    -0.8650     1.7500 hc         1 ERU       0.036700
     53 H8A         -2.3580     0.5100     0.7600 hc         1 ERU       0.036700
     54 H7          -3.7730    -0.3660    -1.1030 hc         1 ERU       0.038200
     55 H7A         -4.1920    -1.7620    -0.1350 hc         1 ERU       0.038200
     56 H6          -5.2630    -0.2670     1.5630 hc         1 ERU       0.036700
     57 H6A         -4.8540     1.1300     0.5920 hc         1 ERU       0.036700
     58 H5          -6.2420     0.2400    -1.2870 hc         1 ERU       0.040200
     59 H5A         -6.6360    -1.1720    -0.3310 hc         1 ERU       0.040200
     60 H4          -7.7330     0.2900     1.3790 hc         1 ERU       0.034700
     61 H4A         -7.3460     1.7020     0.4200 hc         1 ERU       0.034700
     62 H3          -8.7170     0.8020    -1.4680 hc         1 ERU       0.055700
     63 H3A         -9.0980    -0.6160    -0.5160 hc         1 ERU       0.055700
     64 H2         -10.1780     0.8450     1.2220 hc         1 ERU       0.053200
     65 H2A         -9.8170     2.2550     0.2650 hc         1 ERU       0.053200
     66 HN         -12.2900     2.2030     0.8550 hn         1 ERU       0.311500
     67 HNA        -13.3080     1.6030    -0.3940 hn         1 ERU       0.311500
@<TRIPOS>BOND
     1     1     2 1   
     2     1    25 1   
     3     1    26 1   
     4     1    27 1   
     5     2     3 1   
     6     2    28 1   
     7     2    29 1   
     8     3     4 1   
     9     3    30 1   
    10     3    31 1   
    11     4     5 1   
    12     4    32 1   
    13     4    33 1   
    14     5     6 1   
    15     5    34 1   
    16     5    35 1   
    17     6     7 1   
    18     6    36 1   
    19     6    37 1   
    20     7     8 1   
    21     7    38 1   
    22     7    39 1   
    23     8     9 1   
    24     8    40 1   
    25     8    41 1   
    26     9    10 2   
    27     9    42 1   
    28    10    11 1   
    29    10    43 1   
    30    11    12 1   
    31    11    44 1   
    32    11    45 1   
    33    12    13 1   
    34    12    46 1   
    35    12    47 1   
    36    13    14 1   
    37    13    48 1   
    38    13    49 1   
    39    14    15 1   
    40    14    50 1   
    41    14    51 1   
    42    15    16 1   
    43    15    52 1   
    44    15    53 1   
    45    16    17 1   
    46    16    54 1   
    47    16    55 1   
    48    17    18 1   
    49    17    56 1   
    50    17    57 1   
    51    18    19 1   
    52    18    58 1   
    53    18    59 1   
    54    19    20 1   
    55    19    60 1   
    56    19    61 1   
    57    20    21 1   
    58    20    62 1   
    59    20    63 1   
    60    21    22 1   
    61    21    64 1   
    62    21    65 1   
    63    22    23 2   
    64    22    24 1   
    65    24    66 1   
    66    24    67 1   
@<TRIPOS>SUBSTRUCTURE
     1 ERU         1 TEMP              0 ****  ****    0 ROOT
