@<TRIPOS>MOLECULE
ERU
   67    66     1     0     0
SMALL
No Charge or Current Charge


@<TRIPOS>ATOM
      1 C22         10.5630     4.5400     0.3760 c3         1 ERU      -0.088100
      2 C21          9.4330     3.8350    -0.3990 c3         1 ERU      -0.074400
      3 C20          9.0860     2.4420     0.1700 c3         1 ERU      -0.075400
      4 C19          7.9530     1.7360    -0.6070 c3         1 ERU      -0.074400
      5 C18          7.6060     0.3440    -0.0370 c3         1 ERU      -0.074400
      6 C17          6.4730    -0.3620    -0.8140 c3         1 ERU      -0.074400
      7 C16          6.1250    -1.7540    -0.2430 c3         1 ERU      -0.073400
      8 C15          4.9910    -2.4600    -1.0150 c3         1 ERU      -0.042200
      9 C14          4.6600    -3.8190    -0.4280 c2         1 ERU      -0.214200
     10 C13          3.6750    -4.1030     0.4420 c2         1 ERU      -0.218200
     11 C12          2.7000    -3.1210     1.0630 c3         1 ERU      -0.042200
     12 C11          1.3600    -3.0720     0.3000 c3         1 ERU      -0.073400
     13 C10          0.3530    -2.0700     0.9060 c3         1 ERU      -0.074400
     14 C9          -0.9860    -2.0210     0.1380 c3         1 ERU      -0.075400
     15 C8          -1.9930    -1.0180     0.7440 c3         1 ERU      -0.073400
     16 C7          -3.3320    -0.9680    -0.0250 c3         1 ERU      -0.075400
     17 C6          -4.3390     0.0350     0.5800 c3         1 ERU      -0.073400
     18 C5          -5.6770     0.0850    -0.1890 c3         1 ERU      -0.074400
     19 C4          -6.6840     1.0880     0.4170 c3         1 ERU      -0.076400
     20 C3          -8.0230     1.1400    -0.3510 c3         1 ERU      -0.063400
     21 C2          -9.0280     2.1460     0.2590 c3         1 ERU      -0.159400
     22 C1         -10.3830     2.2500    -0.4550 c          1 ERU       0.603100
     23 O          -10.6890     1.6010    -1.4410 o          1 ERU      -0.604100
     24 N          -11.2570     3.1280     0.0790 nt         1 ERU      -0.616000
     25 H22         10.7730     5.5220    -0.0640 hc         1 ERU       0.031367
     26 H22A        10.2810     4.6870     1.4250 hc         1 ERU       0.031367
     27 H22B        11.4840     3.9450     0.3440 hc         1 ERU       0.031367
     28 H21          8.5380     4.4700    -0.3790 hc         1 ERU       0.036700
     29 H21A         9.7310     3.7350    -1.4500 hc         1 ERU       0.036700
     30 H20          9.9830     1.8110     0.1500 hc         1 ERU       0.036700
     31 H20A         8.7910     2.5470     1.2220 hc         1 ERU       0.036700
     32 H19          7.0550     2.3670    -0.5870 hc         1 ERU       0.036700
     33 H19A         8.2480     1.6320    -1.6580 hc         1 ERU       0.036700
     34 H18          8.5030    -0.2880    -0.0570 hc         1 ERU       0.037200
     35 H18A         7.3110     0.4480     1.0150 hc         1 ERU       0.037200
     36 H17          5.5760     0.2700    -0.7940 hc         1 ERU       0.037200
     37 H17A         6.7680    -0.4670    -1.8650 hc         1 ERU       0.037200
     38 H16          7.0200    -2.3880    -0.2620 hc         1 ERU       0.039200
     39 H16A         5.8290    -1.6500     0.8090 hc         1 ERU       0.039200
     40 H15          4.1050    -1.8130    -1.0180 hc         1 ERU       0.044700
     41 H15A         5.2830    -2.5730    -2.0660 hc         1 ERU       0.044700
     42 H14          5.3040    -4.6230    -0.7930 ha         1 ERU       0.164000
     43 H13          3.5360    -5.1330     0.7800 ha         1 ERU       0.164000
     44 H12          2.5130    -3.3980     2.1080 hc         1 ERU       0.043700
     45 H12A         3.1310    -2.1130     1.0920 hc         1 ERU       0.043700
     46 H11          1.5540    -2.8010    -0.7450 hc         1 ERU       0.039200
     47 H11A         0.9140    -4.0750     0.2940 hc         1 ERU       0.039200
     48 H10          0.1590    -2.3420     1.9520 hc         1 ERU       0.037200
     49 H10A         0.8010    -1.0690     0.9130 hc         1 ERU       0.037200
     50 H9          -0.7920    -1.7500    -0.9070 hc         1 ERU       0.037700
     51 H9A         -1.4350    -3.0220     0.1320 hc         1 ERU       0.037700
     52 H8          -2.1880    -1.2900     1.7890 hc         1 ERU       0.036700
     53 H8A         -1.5440    -0.0170     0.7510 hc         1 ERU       0.036700
     54 H7          -3.1370    -0.6970    -1.0700 hc         1 ERU       0.038200
     55 H7A         -3.7810    -1.9690    -0.0320 hc         1 ERU       0.038200
     56 H6          -4.5340    -0.2370     1.6250 hc         1 ERU       0.036700
     57 H6A         -3.8900     1.0360     0.5870 hc         1 ERU       0.036700
     58 H5          -5.4820     0.3570    -1.2340 hc         1 ERU       0.040200
     59 H5A         -6.1270    -0.9160    -0.1960 hc         1 ERU       0.040200
     60 H4          -6.8790     0.8170     1.4620 hc         1 ERU       0.034700
     61 H4A         -6.2350     2.0890     0.4240 hc         1 ERU       0.034700
     62 H3          -7.8290     1.4120    -1.3970 hc         1 ERU       0.055700
     63 H3A         -8.4730     0.1390    -0.3590 hc         1 ERU       0.055700
     64 H2          -9.2240     1.9370     1.3170 hc         1 ERU       0.053200
     65 H2A         -8.6070     3.1560     0.3230 hc         1 ERU       0.053200
     66 HN         -11.0000     3.6640     0.8950 hn         1 ERU       0.311500
     67 HNA        -12.1650     3.2410    -0.3460 hn         1 ERU       0.311500
@<TRIPOS>BOND
     1     1     2 1   
     2     1    25 1   
     3     1    26 1   
     4     1    27 1   
     5     2     3 1   
     6     2    28 1   
     7     2    29 1   
     8     3     4 1   
     9     3    30 1   
    10     3    31 1   
    11     4     5 1   
    12     4    32 1   
    13     4    33 1   
    14     5     6 1   
    15     5    34 1   
    16     5    35 1   
    17     6     7 1   
    18     6    36 1   
    19     6    37 1   
    20     7     8 1   
    21     7    38 1   
    22     7    39 1   
    23     8     9 1   
    24     8    40 1   
    25     8    41 1   
    26     9    10 2   
    27     9    42 1   
    28    10    11 1   
    29    10    43 1   
    30    11    12 1   
    31    11    44 1   
    32    11    45 1   
    33    12    13 1   
    34    12    46 1   
    35    12    47 1   
    36    13    14 1   
    37    13    48 1   
    38    13    49 1   
    39    14    15 1   
    40    14    50 1   
    41    14    51 1   
    42    15    16 1   
    43    15    52 1   
    44    15    53 1   
    45    16    17 1   
    46    16    54 1   
    47    16    55 1   
    48    17    18 1   
    49    17    56 1   
    50    17    57 1   
    51    18    19 1   
    52    18    58 1   
    53    18    59 1   
    54    19    20 1   
    55    19    60 1   
    56    19    61 1   
    57    20    21 1   
    58    20    62 1   
    59    20    63 1   
    60    21    22 1   
    61    21    64 1   
    62    21    65 1   
    63    22    23 2   
    64    22    24 1   
    65    24    66 1   
    66    24    67 1   
@<TRIPOS>SUBSTRUCTURE
     1 ERU         1 TEMP              0 ****  ****    0 ROOT
