@<TRIPOS>MOLECULE
ERV
   21    22     1     0     0
SMALL
No Charge or Current Charge


@<TRIPOS>ATOM
      1 C01         13.3170    -4.7780    41.0310 cc         1 ERV      -0.034000
      2 C02         13.1080    -3.5740    41.7120 cd         1 ERV      -0.187300
      3 C03         13.5820    -2.3100    41.1650 cd         1 ERV       0.389900
      4 C04         14.4040    -3.3910    39.4040 cc         1 ERV       0.389500
      5 C05         15.0210    -3.6550    38.2180 cd         1 ERV      -0.353800
      6 C06         14.9310    -5.0590    38.0300 cd         1 ERV       0.445500
      7 C07         12.3810    -3.5630    43.0340 c3         1 ERV      -0.034800
      8 C08         15.6580    -2.7200    37.2940 c          1 ERV       0.658300
      9 N01         14.2350    -2.1810    40.0120 nc         1 ERV      -0.662000
     10 N02         13.9990    -4.6380    39.8270 na         1 ERV       0.125900
     11 N03         14.3020    -5.6990    39.0140 nc         1 ERV      -0.579100
     12 N04         15.6460    -1.4230    37.6400 nt         1 ERV      -0.606000
     13 O01         16.1830    -3.0700    36.2530 o          1 ERV      -0.620100
     14 H1          13.0100    -5.7690    41.3410 h4         1 ERV       0.167000
     15 H2          13.4250    -1.3730    41.6840 h4         1 ERV       0.032100
     16 H3          15.3120    -5.6350    37.1950 h4         1 ERV       0.068800
     17 H4          13.0130    -3.1460    43.8270 hc         1 ERV       0.051367
     18 H5          11.4700    -2.9550    42.9770 hc         1 ERV       0.051367
     19 H6          12.0850    -4.5730    43.3450 hc         1 ERV       0.051367
     20 H7          16.0730    -0.7390    37.0360 hn         1 ERV       0.323000
     21 H8          15.2040    -1.1560    38.5100 hn         1 ERV       0.323000
@<TRIPOS>BOND
     1     1     2 2   
     2     1    10 1   
     3     1    14 1   
     4     2     3 1   
     5     2     7 1   
     6     3     9 2   
     7     3    15 1   
     8     4     5 2   
     9     4     9 1   
    10     4    10 1   
    11     5     6 1   
    12     5     8 1   
    13     6    11 2   
    14     6    16 1   
    15     7    17 1   
    16     7    18 1   
    17     7    19 1   
    18     8    12 1   
    19     8    13 2   
    20    10    11 1   
    21    12    20 1   
    22    12    21 1   
@<TRIPOS>SUBSTRUCTURE
     1 ERV         1 TEMP              0 ****  ****    0 ROOT
