@<TRIPOS>MOLECULE
ERV
   21    22     1     0     0
SMALL
abcg2


@<TRIPOS>ATOM
      1 C01         13.3280    -4.7040    41.0350 cc         1 ERV      -0.034000
      2 C02         13.0850    -3.5720    41.7520 cd         1 ERV      -0.187300
      3 C03         13.5510    -2.3480    41.2020 cd         1 ERV       0.389900
      4 C04         14.4150    -3.3750    39.3870 cc         1 ERV       0.389500
      5 C05         15.0460    -3.6420    38.1740 cd         1 ERV      -0.353800
      6 C06         14.9330    -5.0310    38.0360 cd         1 ERV       0.445500
      7 C07         12.3610    -3.5950    43.0610 c3         1 ERV      -0.034800
      8 C08         15.6900    -2.7240    37.2270 c          1 ERV       0.658300
      9 N01         14.1900    -2.2460    40.0690 nc         1 ERV      -0.662000
     10 N02         13.9900    -4.5940    39.8610 na         1 ERV       0.125900
     11 N03         14.3020    -5.6050    39.0450 nc         1 ERV      -0.579100
     12 N04         15.6930    -1.4280    37.5830 nt         1 ERV      -0.606000
     13 O01         16.1870    -3.1380    36.1860 o          1 ERV      -0.620100
     14 H1          13.0300    -5.6990    41.3360 h4         1 ERV       0.167000
     15 H2          13.3730    -1.4260    41.7460 h4         1 ERV       0.032100
     16 H3          15.2970    -5.6380    37.2210 h4         1 ERV       0.068800
     17 H4          12.9820    -3.1840    43.8580 hc         1 ERV       0.051367
     18 H5          11.4510    -2.9950    43.0140 hc         1 ERV       0.051367
     19 H6          12.0810    -4.6090    43.3400 hc         1 ERV       0.051367
     20 H7          16.1080    -0.7420    36.9750 hn         1 ERV       0.323000
     21 H8          15.2690    -1.1110    38.4410 hn         1 ERV       0.323000
@<TRIPOS>BOND
     1     1     2 2   
     2     1    10 1   
     3     1    14 1   
     4     2     3 1   
     5     2     7 1   
     6     3     9 2   
     7     3    15 1   
     8     4     5 2   
     9     4     9 1   
    10     4    10 1   
    11     5     6 1   
    12     5     8 1   
    13     6    11 2   
    14     6    16 1   
    15     7    17 1   
    16     7    18 1   
    17     7    19 1   
    18     8    12 1   
    19     8    13 2   
    20    10    11 1   
    21    12    20 1   
    22    12    21 1   
@<TRIPOS>SUBSTRUCTURE
     1 ERV         1 TEMP              0 ****  ****    0 ROOT
