@<TRIPOS>MOLECULE
ERW
   63    66     1     0     0
SMALL
No Charge or Current Charge


@<TRIPOS>ATOM
      1 C1          -7.3570    -1.7010     1.2840 c3         1 ERW       0.088300
      2 C3          -5.5810    -0.3310     0.1080 c          1 ERW       0.575100
      3 C5          -4.7680    -0.2940     1.4320 c3         1 ERW       0.030000
      4 C7          -3.2040     1.8090     1.8000 c5         1 ERW       0.142300
      5 C8          -1.7310     1.9320     1.4270 ca         1 ERW      -0.063300
      6 C10          0.4570     2.9400     1.1880 ca         1 ERW      -0.054000
      7 C11          0.9670     1.7530     0.5840 cp         1 ERW      -0.170500
      8 C12          0.0870     0.6460     0.4310 ca         1 ERW       0.007000
      9 C13         -1.2430     0.7720     0.8560 ca         1 ERW      -0.165600
     10 C14         -2.3320    -0.2160     0.7970 c          1 ERW       0.591600
     11 C16          2.3980     1.6470     0.1520 cp         1 ERW       0.244500
     12 C21          6.7310    -2.3610     1.1300 c6         1 ERW      -0.132400
     13 C22          8.0860    -2.9510     0.6770 c6         1 ERW       0.157100
     14 C24          7.6320    -2.4440    -1.6480 c6         1 ERW       0.157100
     15 C25          6.2570    -1.8270    -1.3050 c6         1 ERW      -0.132400
     16 C27          4.4270     2.4060    -0.9260 ca         1 ERW       0.163900
     17 C28          3.0820     2.6480    -0.5950 ca         1 ERW      -0.064000
     18 C31         -6.4690    -1.9720    -2.3600 c3         1 ERW      -0.102100
     19 N2          -6.7360    -1.1730     0.0310 n          1 ERW      -0.407800
     20 O4          -5.2110     0.3430    -0.8480 o          1 ERW      -0.597100
     21 N6          -3.4580     0.4030     1.3600 n          1 ERW      -0.399800
     22 C9          -0.8870     3.0360     1.6060 ca         1 ERW      -0.109000
     23 N17          3.0360     0.5080     0.4900 nb         1 ERW      -0.252000
     24 C18          4.3200     0.3770     0.1250 ca         1 ERW       0.394900
     25 N19          4.9230    -0.8110     0.5160 nu         1 ERW      -0.913100
     26 C20          6.2690    -1.2690     0.1380 c6         1 ERW       0.246500
     27 O23          7.9720    -3.4530    -0.6720 os         1 ERW      -0.448000
     28 N26          5.0530     1.2710    -0.5630 nb         1 ERW      -0.240000
     29 Cl2          2.3150     4.1310    -1.1700 cl         1 ERW      -0.174000
     30 C30         -7.4500    -1.4300    -1.2800 c3         1 ERW       0.140400
     31 C32         -8.1710    -0.1440    -1.7650 c3         1 ERW      -0.102100
     32 C33         -8.5590    -2.5230    -1.1470 c3         1 ERW      -0.102100
     33 H36         -8.4180    -1.4250     1.3210 h1         1 ERW       0.037033
     34 H35         -7.2630    -2.7940     1.3120 h1         1 ERW       0.037033
     35 H34         -6.8990    -1.2960     2.1910 h1         1 ERW       0.037033
     36 H37         -5.3850     0.2060     2.1870 h1         1 ERW       0.072200
     37 H38         -4.6060    -1.3300     1.7570 h1         1 ERW       0.072200
     38 H39         -3.3620     1.9370     2.8790 h1         1 ERW       0.064700
     39 H40         -3.8240     2.5290     1.2500 h1         1 ERW       0.064700
     40 H42          1.1150     3.7910     1.3500 ha         1 ERW       0.124000
     41 H43          0.4300    -0.2850    -0.0160 ha         1 ERW       0.146000
     42 H47          6.8280    -1.9410     2.1400 hc         1 ERW       0.059200
     43 H48          8.8720    -2.1830     0.7160 h1         1 ERW       0.047950
     44 H49          8.3790    -3.7760     1.3420 h1         1 ERW       0.047950
     45 H51          7.5990    -2.9070    -2.6450 h1         1 ERW       0.047950
     46 H50          8.4110    -1.6680    -1.6560 h1         1 ERW       0.047950
     47 H52          6.0220    -1.0300    -2.0230 hc         1 ERW       0.059200
     48 H53          5.4770    -2.5930    -1.4120 hc         1 ERW       0.059200
     49 H54          5.0080     3.1260    -1.5000 h4         1 ERW       0.033100
     50 H57         -5.9140    -2.8370    -1.9790 hc         1 ERW       0.044589
     51 H56         -7.0100    -2.2890    -3.2600 hc         1 ERW       0.044589
     52 H55         -5.7450    -1.2190    -2.6840 hc         1 ERW       0.044589
     53 H41         -1.2590     3.9500     2.0650 ha         1 ERW       0.122000
     54 H44          4.3190    -1.4510     1.0320 hn         1 ERW       0.506000
     55 H45          6.9900    -0.4370     0.1960 h1         1 ERW       0.078700
     56 H59         -7.4610     0.6550    -2.0030 hc         1 ERW       0.044589
     57 H58         -8.7550    -0.3410    -2.6720 hc         1 ERW       0.044589
     58 H60         -8.8550     0.2300    -0.9950 hc         1 ERW       0.044589
     59 H61         -9.3730    -2.2070    -0.4840 hc         1 ERW       0.044589
     60 H63         -9.0160    -2.7390    -2.1200 hc         1 ERW       0.044589
     61 H62         -8.1450    -3.4650    -0.7670 hc         1 ERW       0.044589
     62 O15         -2.2730    -1.3540     0.3520 o          1 ERW      -0.535000
     63 H46          5.9870    -3.1680     1.1880 hc         1 ERW       0.059200
@<TRIPOS>BOND
     1     1    19 1   
     2     1    33 1   
     3     1    34 1   
     4     1    35 1   
     5     2     3 1   
     6     2    19 1   
     7     2    20 2   
     8     3    21 1   
     9     3    36 1   
    10     3    37 1   
    11     4     5 1   
    12     4    21 1   
    13     4    38 1   
    14     4    39 1   
    15     5     9 ar  
    16     5    22 ar  
    17     6     7 ar  
    18     6    22 ar  
    19     6    40 1   
    20     7     8 ar  
    21     7    11 1   
    22     8     9 ar  
    23     8    41 1   
    24     9    10 1   
    25    10    21 1   
    26    10    62 2   
    27    11    17 ar  
    28    11    23 ar  
    29    12    13 1   
    30    12    26 1   
    31    12    42 1   
    32    12    63 1   
    33    13    27 1   
    34    13    43 1   
    35    13    44 1   
    36    14    15 1   
    37    14    27 1   
    38    14    45 1   
    39    14    46 1   
    40    15    26 1   
    41    15    47 1   
    42    15    48 1   
    43    16    17 ar  
    44    16    28 ar  
    45    16    49 1   
    46    17    29 1   
    47    18    30 1   
    48    18    50 1   
    49    18    51 1   
    50    18    52 1   
    51    19    30 1   
    52    22    53 1   
    53    23    24 ar  
    54    24    25 1   
    55    24    28 ar  
    56    25    26 1   
    57    25    54 1   
    58    26    55 1   
    59    30    31 1   
    60    30    32 1   
    61    31    56 1   
    62    31    57 1   
    63    31    58 1   
    64    32    59 1   
    65    32    60 1   
    66    32    61 1   
@<TRIPOS>SUBSTRUCTURE
     1 ERW         1 TEMP              0 ****  ****    0 ROOT
