@<TRIPOS>MOLECULE
ERW
   63    66     1     0     0
SMALL
bcc


@<TRIPOS>ATOM
      1 C1          -7.2680    -1.7770     1.2180 c3         1 ERW       0.088300
      2 C3          -5.3920    -0.6890     0.1100 c          1 ERW       0.642100
      3 C5          -4.6490    -0.7970     1.4540 c3         1 ERW       0.030000
      4 C7          -3.2530     1.2880     1.6250 c5         1 ERW       0.142300
      5 C8          -1.8270     1.5410     1.2590 ca         1 ERW      -0.063300
      6 C10          0.2440     2.6500     0.8960 ca         1 ERW      -0.072000
      7 C11          0.8130     1.4640     0.4180 cp         1 ERW      -0.170500
      8 C12          0.0550     0.2980     0.3820 ca         1 ERW      -0.011000
      9 C13         -1.2610     0.3640     0.7990 ca         1 ERW      -0.165600
     10 C14         -2.2830    -0.7040     0.8470 c          1 ERW       0.734100
     11 C16          2.2280     1.4080    -0.0070 cp         1 ERW       0.572800
     12 C21          6.8780    -1.9980     1.2790 c6         1 ERW      -0.132400
     13 C22          8.2750    -2.4230     0.8500 c6         1 ERW       0.133900
     14 C24          7.7650    -2.2520    -1.4240 c6         1 ERW       0.133900
     15 C25          6.3330    -1.8220    -1.1460 c6         1 ERW      -0.132400
     16 C27          4.1630     2.1560    -1.1620 ca         1 ERW       0.492200
     17 C28          2.8230     2.3420    -0.8590 ca         1 ERW      -0.286200
     18 C31         -6.7200    -1.7280    -2.4070 c3         1 ERW      -0.102100
     19 N2          -6.6250    -1.2320     0.0320 n          1 ERW      -0.474800
     20 O4          -4.8270    -0.1290    -0.8180 o          1 ERW      -0.597100
     21 N6          -3.3860    -0.1350     1.3900 n          1 ERW      -0.466800
     22 C9          -1.0750     2.7000     1.3250 ca         1 ERW      -0.127000
     23 N17          2.9320     0.3840     0.4450 nb         1 ERW      -0.778000
     24 C18          4.2170     0.2790     0.0880 ca         1 ERW       0.920900
     25 N19          4.8960    -0.7710     0.5790 nu         1 ERW      -0.857900
     26 C20          6.2500    -1.1150     0.2070 c6         1 ERW       0.246500
     27 O23          8.2720    -3.0780    -0.3990 os         1 ERW      -0.401600
     28 N26          4.8680     1.1460    -0.6960 nb         1 ERW      -0.766000
     29 CL2          1.9660     3.6460    -1.6000 cl         1 ERW      -0.082400
     30 C30         -7.4350    -1.0850    -1.2150 c3         1 ERW       0.140400
     31 C32         -7.7330     0.3940    -1.4770 c3         1 ERW      -0.102100
     32 C33         -8.7780    -1.8080    -1.0650 c3         1 ERW      -0.102100
     33 H36         -8.0110    -1.0930     1.6310 h1         1 ERW       0.037033
     34 H35         -7.7550    -2.7220     0.9970 h1         1 ERW       0.037033
     35 H34         -6.5460    -1.9860     1.9980 h1         1 ERW       0.037033
     36 H37         -5.2340    -0.3520     2.2600 h1         1 ERW       0.072200
     37 H38         -4.4920    -1.8440     1.7170 h1         1 ERW       0.072200
     38 H39         -3.4650     1.5400     2.6680 h1         1 ERW       0.064700
     39 H40         -3.9400     1.8630     0.9980 h1         1 ERW       0.064700
     40 H42          0.8450     3.5470     0.9580 ha         1 ERW       0.142000
     41 H43          0.4820    -0.6320     0.0290 ha         1 ERW       0.164000
     42 H47          6.9410    -1.4620     2.2290 hc         1 ERW       0.059200
     43 H48          8.9290    -1.5400     0.8140 h1         1 ERW       0.047950
     44 H49          8.7030    -3.1160     1.5750 h1         1 ERW       0.047950
     45 H51          7.8230    -2.8210    -2.3530 h1         1 ERW       0.047950
     46 H50          8.3990    -1.3610    -1.5440 h1         1 ERW       0.047950
     47 H52          5.9900    -1.1590    -1.9440 hc         1 ERW       0.059200
     48 H53          5.6750    -2.6960    -1.1400 hc         1 ERW       0.059200
     49 H54          4.6730     2.8540    -1.8170 h4         1 ERW       0.033100
     50 H57         -6.4540    -2.7620    -2.1820 hc         1 ERW       0.044589
     51 H56         -7.3940    -1.7410    -3.2660 hc         1 ERW       0.044589
     52 H55         -5.8200    -1.1950    -2.6970 hc         1 ERW       0.044589
     53 H41         -1.4920     3.6250     1.7000 ha         1 ERW       0.140000
     54 H44          4.3530    -1.4540     1.0830 hn         1 ERW       0.450800
     55 H45          6.8240    -0.1860     0.1470 h1         1 ERW       0.078700
     56 H59         -6.8340     0.9640    -1.6980 hc         1 ERW       0.044589
     57 H58         -8.4060     0.4880    -2.3310 hc         1 ERW       0.044589
     58 H60         -8.2280     0.8470    -0.6160 hc         1 ERW       0.044589
     59 H61         -9.3870    -1.4150    -0.2520 hc         1 ERW       0.044589
     60 H63         -9.3410    -1.6630    -1.9860 hc         1 ERW       0.044589
     61 H62         -8.6620    -2.8840    -0.9260 hc         1 ERW       0.044589
     62 O15         -2.1700    -1.8650     0.4940 o          1 ERW      -0.610500
     63 H46          6.2580    -2.8850     1.4450 hc         1 ERW       0.059200
@<TRIPOS>BOND
     1     1    19 1   
     2     1    33 1   
     3     1    34 1   
     4     1    35 1   
     5     2     3 1   
     6     2    19 1   
     7     2    20 2   
     8     3    21 1   
     9     3    36 1   
    10     3    37 1   
    11     4     5 1   
    12     4    21 1   
    13     4    38 1   
    14     4    39 1   
    15     5     9 ar  
    16     5    22 ar  
    17     6     7 ar  
    18     6    22 ar  
    19     6    40 1   
    20     7     8 ar  
    21     7    11 1   
    22     8     9 ar  
    23     8    41 1   
    24     9    10 1   
    25    10    21 1   
    26    10    62 2   
    27    11    17 ar  
    28    11    23 ar  
    29    12    13 1   
    30    12    26 1   
    31    12    42 1   
    32    12    63 1   
    33    13    27 1   
    34    13    43 1   
    35    13    44 1   
    36    14    15 1   
    37    14    27 1   
    38    14    45 1   
    39    14    46 1   
    40    15    26 1   
    41    15    47 1   
    42    15    48 1   
    43    16    17 ar  
    44    16    28 ar  
    45    16    49 1   
    46    17    29 1   
    47    18    30 1   
    48    18    50 1   
    49    18    51 1   
    50    18    52 1   
    51    19    30 1   
    52    22    53 1   
    53    23    24 ar  
    54    24    25 1   
    55    24    28 ar  
    56    25    26 1   
    57    25    54 1   
    58    26    55 1   
    59    30    31 1   
    60    30    32 1   
    61    31    56 1   
    62    31    57 1   
    63    31    58 1   
    64    32    59 1   
    65    32    60 1   
    66    32    61 1   
@<TRIPOS>SUBSTRUCTURE
     1 ERW         1 TEMP              0 ****  ****    0 ROOT
