@<TRIPOS>MOLECULE
ERX
   49    52     1     0     0
SMALL
No Charge or Current Charge


@<TRIPOS>ATOM
      1 C10         13.6000    65.8990    41.1080 c3         1 ERX       0.144400
      2 C11         13.6220    65.8200    37.0450 c3         1 ERX       0.148900
      3 C12         18.3260    68.5810    36.0620 c3         1 ERX       0.144400
      4 C17         16.7780    67.7120    37.7980 ca         1 ERX       0.151100
      5 C18         15.5810    67.0160    38.0800 ca         1 ERX       0.044100
      6 C23         16.8240    63.7020    47.0200 ca         1 ERX      -0.064300
      7 C24         17.7710    64.6580    47.4240 ca         1 ERX      -0.118500
      8 C25         16.2840    63.7780    45.7260 ca         1 ERX      -0.118500
      9 C26         16.6830    64.8000    44.8470 ca         1 ERX      -0.081500
     10 C01         19.0290    69.5860    41.0910 cc         1 ERX      -0.221000
     11 C02         19.9070    70.0860    42.1270 cc         1 ERX       0.370900
     12 C04         19.0900    68.6070    43.4970 cd         1 ERX       0.366500
     13 C06         18.0960    68.5610    41.2870 cd         1 ERX       0.047000
     14 C07         18.9950    67.8540    44.6090 cc         1 ERX      -0.362600
     15 C08         18.0460    66.8390    44.3100 cc         1 ERX       0.439200
     16 C15         17.2270    68.0210    40.1970 ca         1 ERX       0.009000
     17 C16         17.5830    68.2080    38.8460 ca         1 ERX      -0.191000
     18 C19         15.1970    66.8300    39.4410 ca         1 ERX       0.151100
     19 C20         16.0210    67.3410    40.4700 ca         1 ERX      -0.191000
     20 C27         17.6340    65.7700    45.2420 ca         1 ERX      -0.108900
     21 C28         18.1730    65.6810    46.5480 ca         1 ERX      -0.081500
     22 N03         19.9930    69.6360    43.3760 nd         1 ERX      -0.635000
     23 N05         18.1920    68.0550    42.6030 na         1 ERX       0.126900
     24 N09         17.5530    66.9220    43.0740 nd         1 ERX      -0.580100
     25 O14         14.0220    66.1640    39.7580 os         1 ERX      -0.322600
     26 O21         14.8550    66.5590    36.9770 os         1 ERX      -0.329100
     27 H1          12.6570    65.3380    41.1070 h1         1 ERX       0.043867
     28 H2          14.3500    65.3010    41.6420 h1         1 ERX       0.043867
     29 H3          13.4360    66.8350    41.6570 h1         1 ERX       0.043867
     30 H4          13.2720    65.5800    36.0330 h1         1 ERX       0.035700
     31 H5          13.7600    64.8750    37.5850 h1         1 ERX       0.035700
     32 H6          12.8380    66.4090    37.5380 h1         1 ERX       0.035700
     33 H7          18.4000    68.6000    34.9680 h1         1 ERX       0.043867
     34 H8          18.3130    69.6190    36.4190 h1         1 ERX       0.043867
     35 H9          19.2230    68.0840    36.4530 h1         1 ERX       0.043867
     36 H10         17.0400    61.7150    47.8610 hc         1 ERX       0.043033
     37 H11         16.4450    62.9210    49.0160 hc         1 ERX       0.043033
     38 H12         15.3620    62.2790    47.7750 hc         1 ERX       0.043033
     39 H13         18.2010    64.6090    48.4230 ha         1 ERX       0.111500
     40 H14         15.5520    63.0440    45.3970 ha         1 ERX       0.111500
     41 H15         16.2440    64.8290    43.8520 ha         1 ERX       0.121000
     42 H16         19.1050    70.0930    40.1370 ha         1 ERX       0.142000
     43 H17         20.5890    70.9000    41.9220 h4         1 ERX       0.030100
     44 H18         19.5540    67.9800    45.5240 ha         1 ERX       0.229000
     45 H19         18.5120    68.7120    38.6100 ha         1 ERX       0.133000
     46 H20         15.7020    67.2460    41.4980 ha         1 ERX       0.133000
     47 H21         18.9060    66.3990    46.9010 ha         1 ERX       0.121000
     48 O13         17.1350    67.8840    36.4690 os         1 ERX      -0.322600
     49 C22         16.3940    62.5940    47.9700 c3         1 ERX      -0.048800
@<TRIPOS>BOND
     1     1    25 1   
     2     1    27 1   
     3     1    28 1   
     4     1    29 1   
     5     2    26 1   
     6     2    30 1   
     7     2    31 1   
     8     2    32 1   
     9     3    33 1   
    10     3    34 1   
    11     3    35 1   
    12     3    48 1   
    13     4     5 ar  
    14     4    17 ar  
    15     4    48 1   
    16     5    18 ar  
    17     5    26 1   
    18     6     7 ar  
    19     6     8 ar  
    20     6    49 1   
    21     7    21 ar  
    22     7    39 1   
    23     8     9 ar  
    24     8    40 1   
    25     9    20 ar  
    26     9    41 1   
    27    10    11 1   
    28    10    13 2   
    29    10    42 1   
    30    11    22 2   
    31    11    43 1   
    32    12    14 2   
    33    12    22 1   
    34    12    23 1   
    35    13    16 1   
    36    13    23 1   
    37    14    15 1   
    38    14    44 1   
    39    15    20 1   
    40    15    24 2   
    41    16    17 ar  
    42    16    19 ar  
    43    17    45 1   
    44    18    19 ar  
    45    18    25 1   
    46    19    46 1   
    47    20    21 ar  
    48    21    47 1   
    49    23    24 1   
    50    36    49 1   
    51    37    49 1   
    52    38    49 1   
@<TRIPOS>SUBSTRUCTURE
     1 ERX         1 TEMP              0 ****  ****    0 ROOT
