@<TRIPOS>MOLECULE
ERX
   49    52     1     0     0
SMALL
bcc


@<TRIPOS>ATOM
      1 C10         13.3530    66.7430    41.4310 c3         1 ERX       0.121200
      2 C11         14.5290    65.3230    37.2950 c3         1 ERX       0.125700
      3 C12         18.1660    67.9580    36.2790 c3         1 ERX       0.121200
      4 C17         16.6450    67.5970    38.0590 ca         1 ERX       0.151100
      5 C18         15.3740    67.1680    38.4520 ca         1 ERX       0.044100
      6 C23         16.7270    63.6060    46.6170 ca         1 ERX      -0.064300
      7 C24         17.6390    64.5230    47.1310 ca         1 ERX      -0.136500
      8 C25         16.2850    63.7920    45.3070 ca         1 ERX      -0.136500
      9 C26         16.7400    64.8480    44.5390 ca         1 ERX      -0.099500
     10 C01         18.8890    69.7880    41.0450 cc         1 ERX      -0.304300
     11 C02         19.7740    70.2840    42.0230 cc         1 ERX       0.436200
     12 C04         19.1730    68.6740    43.4760 cd         1 ERX       0.366500
     13 C06         18.1200    68.6860    41.3130 cd         1 ERX       0.097700
     14 C07         19.0820    67.8610    44.5910 cc         1 ERX      -0.312600
     15 C08         18.1410    66.8830    44.2450 cc         1 ERX       0.439200
     16 C15         17.1660    68.1150    40.3520 ca         1 ERX       0.009000
     17 C16         17.5390    68.0780    39.0110 ca         1 ERX      -0.209000
     18 C19         15.0110    67.2080    39.8020 ca         1 ERX       0.151100
     19 C20         15.9060    67.6810    40.7540 ca         1 ERX      -0.209000
     20 C27         17.6600    65.7630    45.0570 ca         1 ERX      -0.108900
     21 C28         18.1000    65.5840    46.3660 ca         1 ERX      -0.099500
     22 N03         19.9170    69.7550    43.2090 nd         1 ERX      -0.635000
     23 N05         18.2850    68.1380    42.5490 na         1 ERX       0.076200
     24 N09         17.6710    67.0560    43.0120 nd         1 ERX      -0.580100
     25 O14         13.7740    66.7690    40.0810 os         1 ERX      -0.299400
     26 O21         14.4910    66.7280    37.5230 os         1 ERX      -0.305900
     27 H1          12.3530    66.3170    41.4330 h1         1 ERX       0.043867
     28 H2          14.0040    66.1190    42.0490 h1         1 ERX       0.043867
     29 H3          13.3090    67.7460    41.8640 h1         1 ERX       0.043867
     30 H4          13.7980    65.1060    36.5180 h1         1 ERX       0.035700
     31 H5          15.5130    64.9970    36.9510 h1         1 ERX       0.035700
     32 H6          14.2640    64.7610    38.1930 h1         1 ERX       0.035700
     33 H7          18.1610    67.8120    35.2020 h1         1 ERX       0.043867
     34 H8          18.3220    69.0190    36.4890 h1         1 ERX       0.043867
     35 H9          18.9920    67.3850    36.7060 h1         1 ERX       0.043867
     36 H10         16.6540    61.5070    47.0680 hc         1 ERX       0.043033
     37 H11         16.5220    62.5460    48.4810 hc         1 ERX       0.043033
     38 H12         15.1530    62.3560    47.3860 hc         1 ERX       0.043033
     39 H13         17.9980    64.4090    48.1470 ha         1 ERX       0.129500
     40 H14         15.5710    63.0970    44.8790 ha         1 ERX       0.129500
     41 H15         16.3790    64.9660    43.5250 ha         1 ERX       0.139000
     42 H16         18.7990    70.2950    40.0960 ha         1 ERX       0.160000
     43 H17         20.3710    71.1600    41.8000 h4         1 ERX       0.030100
     44 H18         19.6350    67.9760    45.5070 ha         1 ERX       0.179000
     45 H19         18.5290    68.4030    38.7250 ha         1 ERX       0.151000
     46 H20         15.6320    67.7170    41.7970 ha         1 ERX       0.151000
     47 H21         18.8080    66.2760    46.8060 ha         1 ERX       0.139000
     48 O13         16.9090    67.5070    36.7470 os         1 ERX      -0.299400
     49 C22         16.2390    62.4470    47.4350 c3         1 ERX      -0.048800
@<TRIPOS>BOND
     1     1    25 1   
     2     1    27 1   
     3     1    28 1   
     4     1    29 1   
     5     2    26 1   
     6     2    30 1   
     7     2    31 1   
     8     2    32 1   
     9     3    33 1   
    10     3    34 1   
    11     3    35 1   
    12     3    48 1   
    13     4     5 ar  
    14     4    17 ar  
    15     4    48 1   
    16     5    18 ar  
    17     5    26 1   
    18     6     7 ar  
    19     6     8 ar  
    20     6    49 1   
    21     7    21 ar  
    22     7    39 1   
    23     8     9 ar  
    24     8    40 1   
    25     9    20 ar  
    26     9    41 1   
    27    10    11 1   
    28    10    13 2   
    29    10    42 1   
    30    11    22 2   
    31    11    43 1   
    32    12    14 2   
    33    12    22 1   
    34    12    23 1   
    35    13    16 1   
    36    13    23 1   
    37    14    15 1   
    38    14    44 1   
    39    15    20 1   
    40    15    24 2   
    41    16    17 ar  
    42    16    19 ar  
    43    17    45 1   
    44    18    19 ar  
    45    18    25 1   
    46    19    46 1   
    47    20    21 ar  
    48    21    47 1   
    49    23    24 1   
    50    36    49 1   
    51    37    49 1   
    52    38    49 1   
@<TRIPOS>SUBSTRUCTURE
     1 ERX         1 TEMP              0 ****  ****    0 ROOT
