@<TRIPOS>MOLECULE
ERZ
   28    29     1     0     0
SMALL
abcg2


@<TRIPOS>ATOM
      1 C1           3.0320     1.9430    -0.1870 c3         1 ERZ      -0.021800
      2 C2           2.5440     0.5550     0.0190 cc         1 ERZ      -0.196300
      3 C3           1.2660     0.0530     0.2050 cd         1 ERZ       0.192000
      4 N4           0.1180     0.8350     0.2580 nu         1 ERZ      -0.901900
      5 C5          -1.1720     0.4340     0.1540 ca         1 ERZ       0.380900
      6 C7          -2.7210    -1.1900    -0.0960 ca         1 ERZ       0.150900
      7 C8          -3.7610    -0.2760    -0.0310 ca         1 ERZ      -0.246300
      8 C10         -3.3490     1.0440     0.1320 ca         1 ERZ       0.150900
      9 C12          1.4410    -1.3350     0.3530 cd         1 ERZ       0.251900
     10 N6          -1.4410    -0.8590    -0.0040 nb         1 ERZ      -0.237500
     11 C9          -5.2030    -0.6710    -0.1080 c3         1 ERZ      -0.023800
     12 N11         -2.0840     1.4110     0.2230 nb         1 ERZ      -0.237500
     13 N13          2.7210    -1.6560     0.2680 nc         1 ERZ      -0.515800
     14 N14          3.3680    -0.5150     0.0780 na         1 ERZ       0.138800
     15 H18          3.5570     2.3270     0.6900 hc         1 ERZ       0.047033
     16 H17          3.7160     2.0090    -1.0340 hc         1 ERZ       0.047033
     17 H16          2.2060     2.6200    -0.3950 hc         1 ERZ       0.047033
     18 H19          0.2410     1.8300     0.3660 hn         1 ERZ       0.512000
     19 H20         -2.9300    -2.2470    -0.2310 h4         1 ERZ       0.019600
     20 H24         -4.0840     1.8420     0.1850 h4         1 ERZ       0.019600
     21 H25          0.6940    -2.0930     0.5100 h4         1 ERZ       0.061100
     22 H28          5.0880    -0.1910    -1.0810 h1         1 ERZ       0.055700
     23 H27          5.2580     0.1830     0.6430 h1         1 ERZ       0.055700
     24 H26          5.1750    -1.5000     0.1070 h1         1 ERZ       0.055700
     25 H22         -5.6140    -0.8820     0.8800 hc         1 ERZ       0.041033
     26 H21         -5.8080     0.1220    -0.5480 hc         1 ERZ       0.041033
     27 H23         -5.3370    -1.5660    -0.7150 hc         1 ERZ       0.041033
     28 C15          4.8020    -0.4970    -0.0750 c3         1 ERZ       0.071900
@<TRIPOS>BOND
     1     1     2 1   
     2     1    15 1   
     3     1    16 1   
     4     1    17 1   
     5     2     3 2   
     6     2    14 1   
     7     3     4 1   
     8     3     9 1   
     9     4     5 1   
    10     4    18 1   
    11     5    10 ar  
    12     5    12 ar  
    13     6     7 ar  
    14     6    10 ar  
    15     6    19 1   
    16     7     8 ar  
    17     7    11 1   
    18     8    12 ar  
    19     8    20 1   
    20     9    13 2   
    21     9    21 1   
    22    11    25 1   
    23    11    26 1   
    24    11    27 1   
    25    13    14 1   
    26    14    28 1   
    27    22    28 1   
    28    23    28 1   
    29    24    28 1   
@<TRIPOS>SUBSTRUCTURE
     1 ERZ         1 TEMP              0 ****  ****    0 ROOT
