@<TRIPOS>MOLECULE
ERZ
   28    29     1     0     0
SMALL
No Charge or Current Charge


@<TRIPOS>ATOM
      1 C1           3.0000     2.0210    -0.0530 c3         1 ERZ      -0.021800
      2 C2           2.5800     0.5710    -0.0080 cc         1 ERZ      -0.196300
      3 C3           1.3390     0.0040     0.0190 cd         1 ERZ       0.192000
      4 N4           0.1470     0.7100     0.0080 nu         1 ERZ      -0.901900
      5 C5          -1.1960     0.3490     0.0180 ca         1 ERZ       0.380900
      6 C7          -2.8260    -1.2610     0.0450 ca         1 ERZ       0.150900
      7 C8          -3.8130    -0.2590     0.0340 ca         1 ERZ      -0.246300
      8 C10         -3.3680     1.0760     0.0170 ca         1 ERZ       0.150900
      9 C12          1.5240    -1.4070     0.0630 cd         1 ERZ       0.251900
     10 N6          -1.5140    -0.9590     0.0370 nb         1 ERZ      -0.237500
     11 C9          -5.2950    -0.6020     0.0480 c3         1 ERZ      -0.023800
     12 N11         -2.0560     1.3820     0.0080 nb         1 ERZ      -0.237500
     13 N13          2.8010    -1.7510     0.0690 nc         1 ERZ      -0.515800
     14 N14          3.4450    -0.5280     0.0290 na         1 ERZ       0.138800
     15 H18          3.1890     2.4020     0.9570 hc         1 ERZ       0.047033
     16 H17          3.9160     2.1520    -0.6410 hc         1 ERZ       0.047033
     17 H16          2.2250     2.6470    -0.5110 hc         1 ERZ       0.047033
     18 H19          0.2780     1.7220    -0.0100 hn         1 ERZ       0.512000
     19 H20         -3.0870    -2.3190     0.0620 h4         1 ERZ       0.019600
     20 H24         -4.0680     1.9110     0.0100 h4         1 ERZ       0.019600
     21 H25          0.7750    -2.1860     0.0930 h4         1 ERZ       0.061100
     22 H28          5.2680    -0.1220    -0.9460 h1         1 ERZ       0.055700
     23 H27          5.2580     0.2070     0.8130 h1         1 ERZ       0.055700
     24 H26          5.3280    -1.4770     0.2200 h1         1 ERZ       0.055700
     25 H22         -5.6700    -0.6790     1.0750 hc         1 ERZ       0.041033
     26 H21         -5.8870     0.1640    -0.4680 hc         1 ERZ       0.041033
     27 H23         -5.4870    -1.5590    -0.4520 hc         1 ERZ       0.041033
     28 C15          4.9160    -0.4790     0.0300 c3         1 ERZ       0.071900
@<TRIPOS>BOND
     1     1     2 1   
     2     1    15 1   
     3     1    16 1   
     4     1    17 1   
     5     2     3 2   
     6     2    14 1   
     7     3     4 1   
     8     3     9 1   
     9     4     5 1   
    10     4    18 1   
    11     5    10 ar  
    12     5    12 ar  
    13     6     7 ar  
    14     6    10 ar  
    15     6    19 1   
    16     7     8 ar  
    17     7    11 1   
    18     8    12 ar  
    19     8    20 1   
    20     9    13 2   
    21     9    21 1   
    22    11    25 1   
    23    11    26 1   
    24    11    27 1   
    25    13    14 1   
    26    14    28 1   
    27    22    28 1   
    28    23    28 1   
    29    24    28 1   
@<TRIPOS>SUBSTRUCTURE
     1 ERZ         1 TEMP              0 ****  ****    0 ROOT
