@<TRIPOS>MOLECULE
ES2
   17    18     1     0     0
SMALL
No Charge or Current Charge


@<TRIPOS>ATOM
      1 C10          0.5350     0.4340    -0.0050 ca         1 ES2      -0.019000
      2 Cl01        -3.4910     0.5510    -0.0010 cl         1 ES2      -0.198000
      3 C02         -1.8230    -0.0080    -0.0070 ca         1 ES2       0.154000
      4 C03         -1.5470    -1.3960    -0.0190 ca         1 ES2      -0.135000
      5 C04         -0.2140    -1.8630    -0.0250 ca         1 ES2      -0.048000
      6 C05          0.8180    -0.9140    -0.0170 ca         1 ES2      -0.145300
      7 C06          2.3310    -1.1190    -0.0200 c5         1 ES2      -0.118100
      8 C07          2.8910     0.3400    -0.0080 c          1 ES2       0.565000
      9 O08          4.0470     0.7430    -0.0060 o          1 ES2      -0.520000
     10 N09          1.7480     1.1130    -0.0010 ns         1 ES2      -0.149000
     11 C11         -0.7720     0.9310     0.0000 ca         1 ES2      -0.143000
     12 H03         -2.3690    -2.1070    -0.0250 ha         1 ES2       0.134000
     13 H04          0.0050    -2.9290    -0.0340 ha         1 ES2       0.123000
     14 H06          2.7140    -1.6530     0.8550 hc         1 ES2       0.092700
     15 H06A         2.7120    -1.6380    -0.9060 hc         1 ES2       0.092700
     16 HN09         1.7910     2.1240     0.0080 hn         1 ES2       0.175000
     17 H11         -0.9730     1.9990     0.0090 ha         1 ES2       0.138000
@<TRIPOS>BOND
     1     1     6 ar  
     2     1    10 1   
     3     1    11 ar  
     4     2     3 1   
     5     3     4 ar  
     6     3    11 ar  
     7     4     5 ar  
     8     4    12 1   
     9     5     6 ar  
    10     5    13 1   
    11     6     7 1   
    12     7     8 1   
    13     7    14 1   
    14     7    15 1   
    15     8     9 2   
    16     8    10 1   
    17    10    16 1   
    18    11    17 1   
@<TRIPOS>SUBSTRUCTURE
     1 ES2         1 TEMP              0 ****  ****    0 ROOT
