@<TRIPOS>MOLECULE
ES2
   17    18     1     0     0
SMALL
abcg2


@<TRIPOS>ATOM
      1 C10          0.5430     0.4310    -0.0040 ca         1 ES2      -0.019000
      2 CL01        -3.4120     0.5340    -0.0020 cl         1 ES2      -0.198000
      3 C02         -1.7710    -0.0270    -0.0070 ca         1 ES2       0.154000
      4 C03         -1.5250    -1.3900    -0.0200 ca         1 ES2      -0.135000
      5 C04         -0.2070    -1.8470    -0.0240 ca         1 ES2      -0.048000
      6 C05          0.8260    -0.9360    -0.0170 ca         1 ES2      -0.145300
      7 C06          2.3110    -1.1030    -0.0200 c5         1 ES2      -0.118100
      8 C07          2.8250     0.3280    -0.0090 c          1 ES2       0.565000
      9 O08          3.9800     0.6970    -0.0090 o          1 ES2      -0.520000
     10 N09          1.7300     1.1440     0.0010 ns         1 ES2      -0.149000
     11 C11         -0.7500     0.9190     0.0010 ca         1 ES2      -0.143000
     12 H03         -2.3450    -2.0940    -0.0260 ha         1 ES2       0.134000
     13 H04         -0.0100    -2.9110    -0.0340 ha         1 ES2       0.123000
     14 H06          2.6890    -1.6400     0.8540 hc         1 ES2       0.092700
     15 H06A         2.6870    -1.6260    -0.9030 hc         1 ES2       0.092700
     16 HN09         1.7920     2.1510     0.0070 hn         1 ES2       0.175000
     17 H11         -0.9610     1.9790     0.0100 ha         1 ES2       0.138000
@<TRIPOS>BOND
     1     1     6 ar  
     2     1    10 1   
     3     1    11 ar  
     4     2     3 1   
     5     3     4 ar  
     6     3    11 ar  
     7     4     5 ar  
     8     4    12 1   
     9     5     6 ar  
    10     5    13 1   
    11     6     7 1   
    12     7     8 1   
    13     7    14 1   
    14     7    15 1   
    15     8     9 2   
    16     8    10 1   
    17    10    16 1   
    18    11    17 1   
@<TRIPOS>SUBSTRUCTURE
     1 ES2         1 TEMP              0 ****  ****    0 ROOT
