@<TRIPOS>MOLECULE
ES3
    9     9     1     0     0
SMALL
bcc


@<TRIPOS>ATOM
      1 BR01        -1.3910    -0.0700     0.0420 br         1 ES3      -0.129200
      2 C02          0.4740    -0.0140     0.0320 cc         1 ES3       0.349500
      3 C03          1.2520     1.1070     0.0250 cd         1 ES3      -0.231600
      4 N04          2.5260     0.6240     0.0200 na         1 ES3      -0.291900
      5 C05          2.4620    -0.7190     0.0250 cd         1 ES3       0.389400
      6 N06          1.2210    -1.1430     0.0330 nc         1 ES3      -0.641000
      7 H03          1.0170     2.1570     0.0240 h4         1 ES3       0.189000
      8 HN04         3.3670     1.1800     0.0160 hn         1 ES3       0.305700
      9 H05          3.3410    -1.3440     0.0240 h5         1 ES3       0.060100
@<TRIPOS>BOND
     1     1     2 1   
     2     2     3 2   
     3     2     6 1   
     4     3     4 1   
     5     3     7 1   
     6     4     5 1   
     7     4     8 1   
     8     5     6 2   
     9     5     9 1   
@<TRIPOS>SUBSTRUCTURE
     1 ES3         1 TEMP              0 ****  ****    0 ROOT
