@<TRIPOS>MOLECULE
ES3
    9     9     1     0     0
SMALL
No Charge or Current Charge


@<TRIPOS>ATOM
      1 Br01        -1.4070    -0.0990     0.0420 br         1 ES3      -0.129200
      2 C02          0.4720     0.0090     0.0330 cc         1 ES3       0.284200
      3 C03          1.2460     1.1310     0.0250 cd         1 ES3      -0.199000
      4 N04          2.5450     0.6390     0.0210 na         1 ES3      -0.291500
      5 C05          2.4720    -0.7460     0.0260 cd         1 ES3       0.389400
      6 N06          1.2030    -1.1390     0.0330 nc         1 ES3      -0.641000
      7 H03          0.9810     2.1830     0.0230 h4         1 ES3       0.171000
      8 HN04         3.4040     1.1770     0.0150 hn         1 ES3       0.356000
      9 H05          3.3540    -1.3760     0.0230 h5         1 ES3       0.060100
@<TRIPOS>BOND
     1     1     2 1   
     2     2     3 2   
     3     2     6 1   
     4     3     4 1   
     5     3     7 1   
     6     4     5 1   
     7     4     8 1   
     8     5     6 2   
     9     5     9 1   
@<TRIPOS>SUBSTRUCTURE
     1 ES3         1 TEMP              0 ****  ****    0 ROOT
