@<TRIPOS>MOLECULE
ES4
   13    14     1     0     0
SMALL
No Charge or Current Charge


@<TRIPOS>ATOM
      1 C10          0.3210    -0.3850    -0.0100 ca         1 ES4      -0.023600
      2 Cl01        -2.4270    -0.7980     0.0300 cl         1 ES4      -0.123000
      3 C02         -0.9680     0.1870     0.0060 ca         1 ES4       0.270000
      4 N03         -1.1220     1.5310     0.0030 nb         1 ES4      -0.192000
      5 C04          0.0180     2.2670    -0.0160 ca         1 ES4       0.148900
      6 N05          1.2880     1.7960    -0.0320 nb         1 ES4      -0.168000
      7 C06          1.4060     0.4550    -0.0290 ca         1 ES4       0.095500
      8 N07          2.4900    -0.3690    -0.0410 na         1 ES4      -0.410300
      9 C08          2.0400    -1.6870    -0.0290 cc         1 ES4       0.421700
     10 N09          0.6950    -1.7310    -0.0100 nd         1 ES4      -0.527100
     11 H04         -0.1010     3.3490    -0.0190 h5         1 ES4       0.060100
     12 HN07         3.4600    -0.0820    -0.0550 hn         1 ES4       0.376000
     13 H08          2.7150    -2.5360    -0.0350 h5         1 ES4       0.072800
@<TRIPOS>BOND
     1     1     3 ar  
     2     1     7 ar  
     3     1    10 1   
     4     2     3 1   
     5     3     4 ar  
     6     4     5 ar  
     7     5     6 ar  
     8     5    11 1   
     9     6     7 ar  
    10     7     8 1   
    11     8     9 1   
    12     8    12 1   
    13     9    10 2   
    14     9    13 1   
@<TRIPOS>SUBSTRUCTURE
     1 ES4         1 TEMP              0 ****  ****    0 ROOT
