@<TRIPOS>MOLECULE
ES4
   13    14     1     0     0
SMALL
bcc


@<TRIPOS>ATOM
      1 C10          0.2830    -0.4300    -0.0100 ca         1 ES4      -0.154200
      2 CL01        -2.3940    -0.7580     0.0300 cl         1 ES4      -0.123000
      3 C02         -0.9560     0.1850     0.0060 ca         1 ES4       0.598300
      4 N03         -1.0650     1.4910     0.0020 nb         1 ES4      -0.718000
      5 C04          0.0550     2.2210    -0.0170 ca         1 ES4       0.674900
      6 N05          1.2970     1.7740    -0.0320 nb         1 ES4      -0.694000
      7 C06          1.3720     0.4540    -0.0290 ca         1 ES4       0.423800
      8 N07          2.4640    -0.3500    -0.0400 na         1 ES4      -0.360000
      9 C08          2.0080    -1.6320    -0.0290 cc         1 ES4       0.421700
     10 N09          0.7090    -1.7270    -0.0100 nd         1 ES4      -0.527100
     11 H04         -0.0810     3.2960    -0.0180 h5         1 ES4       0.060100
     12 HN07         3.4310    -0.0610    -0.0550 hn         1 ES4       0.325700
     13 H08          2.6910    -2.4670    -0.0350 h5         1 ES4       0.072800
@<TRIPOS>BOND
     1     1     3 ar  
     2     1     7 ar  
     3     1    10 1   
     4     2     3 1   
     5     3     4 ar  
     6     4     5 ar  
     7     5     6 ar  
     8     5    11 1   
     9     6     7 ar  
    10     7     8 1   
    11     8     9 1   
    12     8    12 1   
    13     9    10 2   
    14     9    13 1   
@<TRIPOS>SUBSTRUCTURE
     1 ES4         1 TEMP              0 ****  ****    0 ROOT
