@<TRIPOS>MOLECULE
ES5
   19    20     1     0     0
SMALL
abcg2


@<TRIPOS>ATOM
      1 C10          0.3100     0.6530     0.0100 ca         1 ES5      -0.035000
      2 N01         -3.3850     0.6390     0.1080 nv         1 ES5      -1.078000
      3 C02         -2.0780     0.2250     0.0340 ca         1 ES5       0.302000
      4 C03         -1.7930    -1.1700     0.0230 ca         1 ES5      -0.154000
      5 C04         -0.5100    -1.6330     0.0050 ca         1 ES5      -0.045000
      6 C05          0.5860    -0.7390     0.0010 ca         1 ES5       0.230000
      7 N06          1.8430    -1.2380    -0.0140 nb         1 ES5      -0.650000
      8 C07          2.8440    -0.3970    -0.0210 ca         1 ES5       0.333900
      9 C08          2.6850     1.0040    -0.0150 ca         1 ES5      -0.156000
     10 C09          1.4230     1.5260     0.0010 ca         1 ES5      -0.077000
     11 C11         -1.0210     1.1130     0.0230 ca         1 ES5      -0.189000
     12 HN01        -4.0770    -0.0010    -0.2450 hn         1 ES5       0.453500
     13 HN0A        -3.5690     1.5910    -0.1650 hn         1 ES5       0.453500
     14 H03         -2.6170    -1.8730     0.0290 ha         1 ES5       0.114000
     15 H04         -0.3130    -2.6980    -0.0050 ha         1 ES5       0.130000
     16 H07          3.8420    -0.8230    -0.0320 h4         1 ES5       0.017100
     17 H08          3.5570     1.6440    -0.0210 ha         1 ES5       0.120000
     18 H09          1.2630     2.5980     0.0050 ha         1 ES5       0.116000
     19 H11         -1.2050     2.1820     0.0260 ha         1 ES5       0.114000
@<TRIPOS>BOND
     1     1     6 ar  
     2     1    10 ar  
     3     1    11 ar  
     4     2     3 1   
     5     2    12 1   
     6     2    13 1   
     7     3     4 ar  
     8     3    11 ar  
     9     4     5 ar  
    10     4    14 1   
    11     5     6 ar  
    12     5    15 1   
    13     6     7 ar  
    14     7     8 ar  
    15     8     9 ar  
    16     8    16 1   
    17     9    10 ar  
    18     9    17 1   
    19    10    18 1   
    20    11    19 1   
@<TRIPOS>SUBSTRUCTURE
     1 ES5         1 TEMP              0 ****  ****    0 ROOT
