@<TRIPOS>MOLECULE
ES5
   19    20     1     0     0
SMALL
No Charge or Current Charge


@<TRIPOS>ATOM
      1 C10          0.3200     0.6240     0.0010 ca         1 ES5      -0.035000
      2 N01         -3.3630     0.6650     0.0150 nv         1 ES5      -1.078000
      3 C02         -2.0780     0.1980     0.0100 ca         1 ES5       0.302000
      4 C03         -1.8270    -1.1810     0.0070 ca         1 ES5      -0.154000
      5 C04         -0.5030    -1.6600     0.0010 ca         1 ES5      -0.045000
      6 C05          0.5890    -0.7710    -0.0020 ca         1 ES5       0.230000
      7 N06          1.8560    -1.2550    -0.0080 nb         1 ES5      -0.650000
      8 C07          2.8850    -0.3760    -0.0110 ca         1 ES5       0.333900
      9 C08          2.7000     1.0160    -0.0080 ca         1 ES5      -0.156000
     10 C09          1.3950     1.5310    -0.0020 ca         1 ES5      -0.077000
     11 C11         -1.0060     1.1000     0.0070 ca         1 ES5      -0.189000
     12 HN01        -4.1380     0.0190    -0.1280 hn         1 ES5       0.453500
     13 HN0A        -3.5440     1.6570    -0.1270 hn         1 ES5       0.453500
     14 H03         -2.6530    -1.8860     0.0100 ha         1 ES5       0.114000
     15 H04         -0.3210    -2.7310    -0.0010 ha         1 ES5       0.130000
     16 H07          3.8880    -0.8020    -0.0160 h4         1 ES5       0.017100
     17 H08          3.5600     1.6800    -0.0110 ha         1 ES5       0.120000
     18 H09          1.2240     2.6050     0.0000 ha         1 ES5       0.116000
     19 H11         -1.2000     2.1700     0.0100 ha         1 ES5       0.114000
@<TRIPOS>BOND
     1     1     6 ar  
     2     1    10 ar  
     3     1    11 ar  
     4     2     3 1   
     5     2    12 1   
     6     2    13 1   
     7     3     4 ar  
     8     3    11 ar  
     9     4     5 ar  
    10     4    14 1   
    11     5     6 ar  
    12     5    15 1   
    13     6     7 ar  
    14     7     8 ar  
    15     8     9 ar  
    16     8    16 1   
    17     9    10 ar  
    18     9    17 1   
    19    10    18 1   
    20    11    19 1   
@<TRIPOS>SUBSTRUCTURE
     1 ES5         1 TEMP              0 ****  ****    0 ROOT
