@<TRIPOS>MOLECULE
ES6
   14    14     1     0     0
SMALL
No Charge or Current Charge


@<TRIPOS>ATOM
      1 O01          2.2440    -1.4620    -0.0330 o          1 ES6      -0.709500
      2 C02          1.7160    -0.3580    -0.0170 c          1 ES6       0.719200
      3 O03          2.3920     0.6590     0.0060 o          1 ES6      -0.709500
      4 C04          0.2250    -0.2850    -0.0280 cc         1 ES6      -0.233400
      5 C05         -0.5150    -1.4710    -0.0550 cd         1 ES6      -0.135000
      6 C06         -1.9540    -1.4200    -0.0660 cd         1 ES6      -0.289000
      7 C07         -2.5880    -0.2000    -0.0490 cc         1 ES6      -0.086400
      8 N08         -1.8360     0.9580    -0.0220 ns         1 ES6      -0.390100
      9 C09         -0.4630     1.0350    -0.0100 c          1 ES6       0.556200
     10 O10          0.0660     2.1360     0.0140 o          1 ES6      -0.551000
     11 H05         -0.0190    -2.4410    -0.0690 ha         1 ES6       0.202000
     12 H06         -2.5380    -2.3380    -0.0870 ha         1 ES6       0.170000
     13 H07         -3.6610    -0.0310    -0.0550 h4         1 ES6       0.164000
     14 HN08        -2.3100     1.8540    -0.0100 hn         1 ES6       0.291500
@<TRIPOS>BOND
     1     1     2 1   
     2     2     3 1   
     3     2     4 1   
     4     4     5 2   
     5     4     9 1   
     6     5     6 1   
     7     5    11 1   
     8     6     7 2   
     9     6    12 1   
    10     7     8 1   
    11     7    13 1   
    12     8     9 1   
    13     8    14 1   
    14     9    10 2   
@<TRIPOS>SUBSTRUCTURE
     1 ES6         1 TEMP              0 ****  ****    0 ROOT
