@<TRIPOS>MOLECULE
ES6
   14    14     1     0     0
SMALL
bcc


@<TRIPOS>ATOM
      1 O01          2.1960    -1.5240     0.1850 o          1 ES6      -0.814800
      2 C02          1.7390    -0.3830    -0.0350 c          1 ES6       0.929800
      3 O03          2.3990     0.6400    -0.2830 o          1 ES6      -0.814800
      4 C04          0.2200    -0.2620    -0.0150 cc         1 ES6      -0.233400
      5 C05         -0.5340    -1.4040    -0.0570 cd         1 ES6      -0.085000
      6 C06         -1.9450    -1.4030    -0.0890 cd         1 ES6      -0.239000
      7 C07         -2.5680    -0.1980    -0.0650 cc         1 ES6      -0.036400
      8 N08         -1.8410     0.9350    -0.0060 ns         1 ES6      -0.457100
      9 C09         -0.4530     1.0240     0.0340 c          1 ES6       0.698700
     10 O10          0.0500     2.1380     0.1220 o          1 ES6      -0.626500
     11 H05         -0.0130    -2.3520    -0.0720 ha         1 ES6       0.152000
     12 H06         -2.5160    -2.3180    -0.1340 ha         1 ES6       0.120000
     13 H07         -3.6410    -0.0740    -0.0890 h4         1 ES6       0.114000
     14 HN08        -2.3330     1.8170     0.0230 hn         1 ES6       0.291500
@<TRIPOS>BOND
     1     1     2 1   
     2     2     3 1   
     3     2     4 1   
     4     4     5 2   
     5     4     9 1   
     6     5     6 1   
     7     5    11 1   
     8     6     7 2   
     9     6    12 1   
    10     7     8 1   
    11     7    13 1   
    12     8     9 1   
    13     8    14 1   
    14     9    10 2   
@<TRIPOS>SUBSTRUCTURE
     1 ES6         1 TEMP              0 ****  ****    0 ROOT
