@<TRIPOS>MOLECULE
ES7
   20    21     1     0     0
SMALL
abcg2


@<TRIPOS>ATOM
      1 C10         -1.6560     0.5390    -0.1250 cc         1 ES7       0.629700
      2 C01         -1.8210    -1.9570    -0.0690 c3         1 ES7       0.067900
      3 N02         -1.1020    -0.7060    -0.0650 na         1 ES7      -0.212600
      4 C03          0.2630    -0.5220    -0.0030 ca         1 ES7      -0.081200
      5 C04          1.3210    -1.4100     0.0790 ca         1 ES7      -0.111000
      6 C05          2.6000    -0.8650     0.1200 ca         1 ES7      -0.109000
      7 C06          2.8000     0.5170     0.0810 ca         1 ES7      -0.126000
      8 C07          1.7300     1.3990    -0.0000 ca         1 ES7      -0.067000
      9 C08          0.4430     0.8720    -0.0420 ca         1 ES7       0.103400
     10 N09         -0.7730     1.5080    -0.1150 nd         1 ES7      -0.639100
     11 N11         -2.9960     0.7060    -0.2500 nv         1 ES7      -1.007200
     12 H01         -2.4860    -2.0180    -0.9300 h1         1 ES7       0.048700
     13 H01A        -1.1120    -2.7780    -0.1330 h1         1 ES7       0.048700
     14 H01B        -2.4050    -2.0840     0.8430 h1         1 ES7       0.048700
     15 H04          1.1750    -2.4830     0.1120 ha         1 ES7       0.112000
     16 H05          3.4540    -1.5270     0.1850 ha         1 ES7       0.110000
     17 H06          3.8090     0.9070     0.1160 ha         1 ES7       0.112000
     18 H07          1.8890     2.4700    -0.0290 ha         1 ES7       0.126000
     19 HN11        -3.5990     0.0040     0.1490 hn         1 ES7       0.473000
     20 HN1A        -3.3210     1.6450    -0.0810 hn         1 ES7       0.473000
@<TRIPOS>BOND
     1     1     3 1   
     2     1    10 2   
     3     1    11 1   
     4     2     3 1   
     5     2    12 1   
     6     2    13 1   
     7     2    14 1   
     8     3     4 1   
     9     4     5 ar  
    10     4     9 ar  
    11     5     6 ar  
    12     5    15 1   
    13     6     7 ar  
    14     6    16 1   
    15     7     8 ar  
    16     7    17 1   
    17     8     9 ar  
    18     8    18 1   
    19     9    10 1   
    20    11    19 1   
    21    11    20 1   
@<TRIPOS>SUBSTRUCTURE
     1 ES7         1 TEMP              0 ****  ****    0 ROOT
