@<TRIPOS>MOLECULE
ES7
   20    21     1     0     0
SMALL
No Charge or Current Charge


@<TRIPOS>ATOM
      1 C10         -1.6870     0.5670    -0.2050 cc         1 ES7       0.629700
      2 C01         -1.7590    -2.0270    -0.0710 c3         1 ES7       0.067900
      3 N02         -1.1230    -0.6990    -0.0890 na         1 ES7      -0.212600
      4 C03          0.2240    -0.5000    -0.0020 ca         1 ES7      -0.081200
      5 C04          1.2810    -1.4110     0.1350 ca         1 ES7      -0.111000
      6 C05          2.5890    -0.8870     0.1990 ca         1 ES7      -0.109000
      7 C06          2.8030     0.5110     0.1260 ca         1 ES7      -0.126000
      8 C07          1.7100     1.3970    -0.0100 ca         1 ES7      -0.067000
      9 C08          0.4170     0.8580    -0.0720 ca         1 ES7       0.103400
     10 N09         -0.7910     1.5490    -0.2000 nd         1 ES7      -0.639100
     11 N11         -3.0030     0.7970    -0.2940 nv         1 ES7      -1.007200
     12 H01         -2.7780    -1.9660    -0.4690 h1         1 ES7       0.048700
     13 H01A        -1.1800    -2.7240    -0.6900 h1         1 ES7       0.048700
     14 H01B        -1.7940    -2.4020     0.9600 h1         1 ES7       0.048700
     15 H04          1.1060    -2.4830     0.1920 ha         1 ES7       0.112000
     16 H05          3.4370    -1.5600     0.3050 ha         1 ES7       0.110000
     17 H06          3.8150     0.9060     0.1760 ha         1 ES7       0.112000
     18 H07          1.8660     2.4710    -0.0650 ha         1 ES7       0.126000
     19 HN11        -3.6210     0.0700     0.0470 hn         1 ES7       0.473000
     20 HN1A        -3.2980     1.7520    -0.1290 hn         1 ES7       0.473000
@<TRIPOS>BOND
     1     1     3 1   
     2     1    10 2   
     3     1    11 1   
     4     2     3 1   
     5     2    12 1   
     6     2    13 1   
     7     2    14 1   
     8     3     4 1   
     9     4     5 ar  
    10     4     9 ar  
    11     5     6 ar  
    12     5    15 1   
    13     6     7 ar  
    14     6    16 1   
    15     7     8 ar  
    16     7    17 1   
    17     8     9 ar  
    18     8    18 1   
    19     9    10 1   
    20    11    19 1   
    21    11    20 1   
@<TRIPOS>SUBSTRUCTURE
     1 ES7         1 TEMP              0 ****  ****    0 ROOT
