@<TRIPOS>MOLECULE
ES8
   29    31     1     0     0
SMALL
bcc


@<TRIPOS>ATOM
      1 O19          4.1870    -0.6550    -0.0530 o          1 ES8      -0.825800
      2 C17          4.3150     0.5780     0.0510 c          1 ES8       0.930600
      3 O18          5.3750     1.1550     0.2740 o          1 ES8      -0.825800
      4 C16          3.0460     1.4150     0.0460 c3         1 ES8      -0.016600
      5 O15          1.9400     0.5470    -0.0750 os         1 ES8      -0.128300
      6 N14          0.7810     1.2470    -0.0700 n2         1 ES8      -0.380200
      7 C07         -0.2460     0.4940    -0.0480 cc         1 ES8       0.410500
      8 C03         -1.5850     1.1010    -0.0140 ca         1 ES8      -0.119400
      9 C04         -1.9790     2.4150    -0.1610 ca         1 ES8      -0.079500
     10 C05         -3.3360     2.7080    -0.0860 ca         1 ES8      -0.138000
     11 C06         -4.2750     1.6920     0.0530 ca         1 ES8      -0.141000
     12 C01         -3.8810     0.3590     0.1120 ca         1 ES8      -0.118500
     13 C08         -0.4320    -0.9610     0.0130 ca         1 ES8      -0.119400
     14 C13          0.4700    -2.0130    -0.0490 ca         1 ES8      -0.079500
     15 C12         -0.0230    -3.3120    -0.0090 ca         1 ES8      -0.138000
     16 C11         -1.3880    -3.5560     0.0700 ca         1 ES8      -0.141000
     17 C10         -2.2950    -2.5030     0.1090 ca         1 ES8      -0.118500
     18 C09         -1.8120    -1.2090     0.0750 cp         1 ES8      -0.041500
     19 C02         -2.5310     0.0670     0.0600 cp         1 ES8      -0.041500
     20 H2           3.0140     1.9460     1.0040 h1         1 ES8       0.024200
     21 H3           3.0210     2.1620    -0.7550 h1         1 ES8       0.024200
     22 H4          -1.2440     3.2030    -0.2520 ha         1 ES8       0.171000
     23 H5          -3.6650     3.7380    -0.1190 ha         1 ES8       0.125000
     24 H6          -5.3250     1.9410     0.1210 ha         1 ES8       0.115500
     25 H7          -4.6240    -0.4230     0.1940 ha         1 ES8       0.121500
     26 H8           1.5320    -1.8390    -0.1150 ha         1 ES8       0.171000
     27 H9           0.6640    -4.1460    -0.0500 ha         1 ES8       0.125000
     28 H10         -1.7520    -4.5740     0.0390 ha         1 ES8       0.115500
     29 H11         -3.3590    -2.6990     0.1440 ha         1 ES8       0.121500
@<TRIPOS>BOND
     1     1     2 1   
     2     2     3 1   
     3     2     4 1   
     4     4     5 1   
     5     4    20 1   
     6     4    21 1   
     7     5     6 1   
     8     6     7 2   
     9     7     8 1   
    10     7    13 1   
    11     8     9 ar  
    12     8    19 ar  
    13     9    10 ar  
    14     9    22 1   
    15    10    11 ar  
    16    10    23 1   
    17    11    12 ar  
    18    11    24 1   
    19    12    19 ar  
    20    12    25 1   
    21    13    14 ar  
    22    13    18 ar  
    23    14    15 ar  
    24    14    26 1   
    25    15    16 ar  
    26    15    27 1   
    27    16    17 ar  
    28    16    28 1   
    29    17    18 ar  
    30    17    29 1   
    31    18    19 1   
@<TRIPOS>SUBSTRUCTURE
     1 ES8         1 TEMP              0 ****  ****    0 ROOT
