@<TRIPOS>MOLECULE
ES8
   29    31     1     0     0
SMALL
No Charge or Current Charge


@<TRIPOS>ATOM
      1 O19          4.5810    -0.5430     0.0260 o          1 ES8      -0.720500
      2 C17          4.5330     0.6820     0.0170 c          1 ES8       0.720000
      3 O18          5.5360     1.3850     0.0130 o          1 ES8      -0.720500
      4 C16          3.1510     1.3990     0.0100 c3         1 ES8       0.006600
      5 O15          2.0360     0.4800     0.0160 os         1 ES8      -0.250000
      6 N14          0.8230     1.1920     0.0100 n2         1 ES8      -0.281700
      7 C07         -0.2800     0.4920     0.0140 cc         1 ES8       0.410500
      8 C03         -1.6260     1.0670     0.0090 ca         1 ES8      -0.119400
      9 C04         -1.9980     2.4220    -0.0010 ca         1 ES8      -0.061500
     10 C05         -3.3740     2.7400    -0.0050 ca         1 ES8      -0.120000
     11 C06         -4.3520     1.7180     0.0020 ca         1 ES8      -0.123000
     12 C01         -3.9660     0.3620     0.0120 ca         1 ES8      -0.100500
     13 C08         -0.5040    -0.9690     0.0240 ca         1 ES8      -0.119400
     14 C13          0.4180    -2.0370     0.0320 ca         1 ES8      -0.061500
     15 C12         -0.0750    -3.3600     0.0410 ca         1 ES8      -0.120000
     16 C11         -1.4650    -3.6170     0.0420 ca         1 ES8      -0.123000
     17 C10         -2.3830    -2.5500     0.0340 ca         1 ES8      -0.100500
     18 C09         -1.8830    -1.2340     0.0250 cp         1 ES8      -0.041500
     19 C02         -2.5920     0.0570     0.0150 cp         1 ES8      -0.041500
     20 H2           3.1110     2.0500     0.8940 h1         1 ES8       0.024200
     21 H3           3.1130     2.0370    -0.8820 h1         1 ES8       0.024200
     22 H4          -1.2460     3.2100    -0.0060 ha         1 ES8       0.153000
     23 H5          -3.6840     3.7830    -0.0120 ha         1 ES8       0.107000
     24 H6          -5.4070     1.9800    -0.0010 ha         1 ES8       0.097500
     25 H7          -4.7120    -0.4290     0.0170 ha         1 ES8       0.103500
     26 H8           1.4910    -1.8700     0.0320 ha         1 ES8       0.153000
     27 H9           0.6250    -4.1930     0.0480 ha         1 ES8       0.107000
     28 H10         -1.8270    -4.6420     0.0490 ha         1 ES8       0.097500
     29 H11         -3.4530    -2.7370     0.0340 ha         1 ES8       0.103500
@<TRIPOS>BOND
     1     1     2 1   
     2     2     3 1   
     3     2     4 1   
     4     4     5 1   
     5     4    20 1   
     6     4    21 1   
     7     5     6 1   
     8     6     7 2   
     9     7     8 1   
    10     7    13 1   
    11     8     9 ar  
    12     8    19 ar  
    13     9    10 ar  
    14     9    22 1   
    15    10    11 ar  
    16    10    23 1   
    17    11    12 ar  
    18    11    24 1   
    19    12    19 ar  
    20    12    25 1   
    21    13    14 ar  
    22    13    18 ar  
    23    14    15 ar  
    24    14    26 1   
    25    15    16 ar  
    26    15    27 1   
    27    16    17 ar  
    28    16    28 1   
    29    17    18 ar  
    30    17    29 1   
    31    18    19 1   
@<TRIPOS>SUBSTRUCTURE
     1 ES8         1 TEMP              0 ****  ****    0 ROOT
