@<TRIPOS>MOLECULE
ES9
   15    16     1     0     0
SMALL
abcg2


@<TRIPOS>ATOM
      1 C10         -0.4260     1.0040     0.0240 ca         1 ES9      -0.038000
      2 CL01        -3.0360     0.3440     0.0130 cl         1 ES9      -0.208000
      3 C02         -1.3380    -0.0310     0.0140 ca         1 ES9       0.096000
      4 C03         -0.9590    -1.3800     0.0040 ca         1 ES9      -0.087000
      5 C04          0.3780    -1.7320     0.0040 ca         1 ES9      -0.105000
      6 C05          1.3060    -0.6980     0.0130 ca         1 ES9      -0.085200
      7 N06          2.6730    -0.6700     0.0160 na         1 ES9      -0.313600
      8 C07          3.0440     0.6310     0.0280 cc         1 ES9       0.418700
      9 N08          2.0380     1.4600     0.0330 nd         1 ES9      -0.569100
     10 C09          0.9250     0.6550     0.0240 ca         1 ES9       0.070400
     11 H10         -0.7370     2.0400     0.0330 ha         1 ES9       0.146000
     12 H03         -1.7180    -2.1490    -0.0030 ha         1 ES9       0.130000
     13 H04          0.6760    -2.7720    -0.0050 ha         1 ES9       0.122000
     14 HN06         3.2970    -1.4610     0.0110 hn         1 ES9       0.359000
     15 H07          4.0850     0.9150     0.0320 h5         1 ES9       0.063800
@<TRIPOS>BOND
     1     1     3 ar  
     2     1    10 ar  
     3     1    11 1   
     4     2     3 1   
     5     3     4 ar  
     6     4     5 ar  
     7     4    12 1   
     8     5     6 ar  
     9     5    13 1   
    10     6     7 1   
    11     6    10 ar  
    12     7     8 1   
    13     7    14 1   
    14     8     9 2   
    15     8    15 1   
    16     9    10 1   
@<TRIPOS>SUBSTRUCTURE
     1 ES9         1 TEMP              0 ****  ****    0 ROOT
