@<TRIPOS>MOLECULE
ESA
   11    10     1     0     0
SMALL
No Charge or Current Charge


@<TRIPOS>ATOM
      1 C1          -0.0060    -0.1470     2.3930 c3         1 ESA      -0.041100
      2 C2          -0.0160     0.8300     1.1950 c3         1 ESA      -0.359400
      3 S            0.0040     0.0150    -0.4260 s6         1 ESA       1.322600
      4 O1           1.2540    -0.7590    -0.4180 o          1 ESA      -0.701533
      5 O2          -0.0100     1.1400    -1.3730 o          1 ESA      -0.701533
      6 O3          -1.2210    -0.7980    -0.4290 o          1 ESA      -0.701533
      7 H11         -0.0190     0.4120     3.3360 hc         1 ESA       0.020033
      8 H12         -0.8860    -0.8010     2.3750 hc         1 ESA       0.020033
      9 H13          0.8940    -0.7730     2.3830 hc         1 ESA       0.020033
     10 H21         -0.9180     1.4500     1.2200 h1         1 ESA       0.060700
     11 H22          0.8660     1.4790     1.2280 h1         1 ESA       0.060700
@<TRIPOS>BOND
     1     1     2 1   
     2     1     7 1   
     3     1     8 1   
     4     1     9 1   
     5     2     3 1   
     6     2    10 1   
     7     2    11 1   
     8     3     4 1   
     9     3     5 1   
    10     3     6 1   
@<TRIPOS>SUBSTRUCTURE
     1 ESA         1 TEMP              0 ****  ****    0 ROOT
