@<TRIPOS>MOLECULE
ESA
   11    10     1     0     0
SMALL
bcc


@<TRIPOS>ATOM
      1 C1          -0.0070    -0.1420     2.3730 c3         1 ESA      -0.041100
      2 C2          -0.0150     0.8410     1.2160 c3         1 ESA      -0.248600
      3 S            0.0040     0.0220    -0.3870 s6         1 ESA       1.211800
      4 O1           1.2500    -0.7720    -0.4200 o          1 ESA      -0.701533
      5 O2          -0.0130     1.1090    -1.3880 o          1 ESA      -0.701533
      6 O3          -1.2120    -0.8170    -0.4270 o          1 ESA      -0.701533
      7 H11         -0.0190     0.3930     3.3220 hc         1 ESA       0.020033
      8 H12         -0.8810    -0.7910     2.3460 hc         1 ESA       0.020033
      9 H13          0.8860    -0.7650     2.3550 hc         1 ESA       0.020033
     10 H21         -0.9050     1.4730     1.2420 h1         1 ESA       0.060700
     11 H22          0.8560     1.4980     1.2500 h1         1 ESA       0.060700
@<TRIPOS>BOND
     1     1     2 1   
     2     1     7 1   
     3     1     8 1   
     4     1     9 1   
     5     2     3 1   
     6     2    10 1   
     7     2    11 1   
     8     3     4 1   
     9     3     5 1   
    10     3     6 1   
@<TRIPOS>SUBSTRUCTURE
     1 ESA         1 TEMP              0 ****  ****    0 ROOT
