@<TRIPOS>MOLECULE
ESB
   30    30     1     0     0
SMALL
bcc


@<TRIPOS>ATOM
      1 OX          -3.8250     0.6990    26.6100 o          1 ESB      -0.505100
      2 C2           2.8390     0.0440    25.0360 c3         1 ESB      -0.098100
      3 C1           2.2980    -0.8720    26.1300 c3         1 ESB       0.127800
      4 N1           1.0120    -1.3950    25.7420 n2         1 ESB      -0.658900
      5 N           -0.5890     3.5150    26.0270 n8         1 ESB      -0.907800
      6 CA          -1.8080     3.3940    26.8050 c3         1 ESB       0.023500
      7 C           -2.0990     4.6950    27.6070 c          1 ESB       0.931600
      8 O           -1.4640     5.7150    27.2760 o          1 ESB      -0.828800
      9 CG          -1.5100     0.9090    27.0150 cc         1 ESB      -0.073400
     10 CD1         -2.7100     0.2280    26.4370 c          1 ESB       0.557500
     11 CD2         -0.2880     0.3910    26.8160 cd         1 ESB      -0.292600
     12 CE1         -2.5150    -0.9940    25.6790 cc         1 ESB      -0.317200
     13 CE2         -0.0840    -0.8210    26.0400 cd         1 ESB       0.496900
     14 CZ          -1.2830    -1.4980    25.4860 cd         1 ESB       0.080500
     15 OH          -1.0500    -2.6000    24.7970 oh         1 ESB      -0.492100
     16 OXT         -2.9720     4.6110    28.4910 o          1 ESB      -0.828800
     17 H2           2.2120     0.9290    24.9210 hc         1 ESB       0.042367
     18 H2A          3.8460     0.3700    25.2900 hc         1 ESB       0.042367
     19 H2B          2.8800    -0.4730    24.0780 hc         1 ESB       0.042367
     20 H1           2.9720    -1.7200    26.2550 h1         1 ESB       0.045700
     21 H1A          2.2710    -0.3360    27.0830 h1         1 ESB       0.045700
     22 HA          -2.6930     3.2410    26.1670 h1         1 ESB       0.016700
     23 HD2          0.5760     0.8890    27.2350 ha         1 ESB       0.154000
     24 HE1         -3.3910    -1.4840    25.2710 ha         1 ESB       0.155000
     25 HOH         -0.0780    -2.7230    24.8020 ho         1 ESB       0.461000
     26 HN          -0.6500     2.9690    25.1790 hn         1 ESB       0.333300
     27 HB          -0.8760     2.3470    28.4360 hc         1 ESB       0.069700
     28 HBA         -2.6230     2.1350    28.3550 hc         1 ESB       0.069700
     29 CB          -1.7160     2.1870    27.7560 c3         1 ESB      -0.027200
     30 HNA         -0.4890     4.4850    25.7560 hn         1 ESB       0.333300
@<TRIPOS>BOND
     1     1    10 2   
     2     2     3 1   
     3     2    17 1   
     4     2    18 1   
     5     2    19 1   
     6     3     4 1   
     7     3    20 1   
     8     3    21 1   
     9     4    13 2   
    10     5     6 1   
    11     5    26 1   
    12     5    30 1   
    13     6     7 1   
    14     6    22 1   
    15     6    29 1   
    16     7     8 1   
    17     7    16 1   
    18     9    10 1   
    19     9    11 2   
    20     9    29 1   
    21    10    12 1   
    22    11    13 1   
    23    11    23 1   
    24    12    14 2   
    25    12    24 1   
    26    13    14 1   
    27    14    15 1   
    28    15    25 1   
    29    27    29 1   
    30    28    29 1   
@<TRIPOS>SUBSTRUCTURE
     1 ESB         1 TEMP              0 ****  ****    0 ROOT
