@<TRIPOS>MOLECULE
ESB
   30    30     1     0     0
SMALL
No Charge or Current Charge


@<TRIPOS>ATOM
      1 OX          -3.8110     0.8320    26.5570 o          1 ESB      -0.505100
      2 C2           2.9200     0.0340    25.2540 c3         1 ESB      -0.098100
      3 C1           2.3300    -1.0360    26.1920 c3         1 ESB       0.127800
      4 N1           1.0150    -1.4880    25.7020 n2         1 ESB      -0.658900
      5 N           -0.5850     3.7140    25.9620 n8         1 ESB      -1.018200
      6 CA          -1.7900     3.4990    26.8450 c3         1 ESB       0.023500
      7 C           -2.2610     4.7480    27.7110 c          1 ESB       0.721000
      8 O           -2.9690     5.5870    27.1670 o          1 ESB      -0.723500
      9 CG          -1.4380     0.9440    26.9140 cc         1 ESB      -0.073400
     10 CD1         -2.7000     0.3500    26.3780 c          1 ESB       0.557500
     11 CD2         -0.2030     0.3430    26.7030 cd         1 ESB      -0.342600
     12 CE1         -2.5380    -0.8770    25.5950 cc         1 ESB      -0.367200
     13 CE2         -0.1150    -0.8780    25.9350 cd         1 ESB       0.496900
     14 CZ          -1.3220    -1.4810    25.3750 cd         1 ESB       0.080500
     15 OH          -1.2480    -2.6230    24.6490 oh         1 ESB      -0.531100
     16 OXT         -1.9120     4.8340    28.8830 o          1 ESB      -0.723500
     17 H2           2.2780     0.9210    25.2100 hc         1 ESB       0.042367
     18 H2A          3.9080     0.3450    25.6120 hc         1 ESB       0.042367
     19 H2B          3.0340    -0.3630    24.2380 hc         1 ESB       0.042367
     20 H1           3.0240    -1.8870    26.2180 h1         1 ESB       0.045700
     21 H1A          2.2770    -0.6480    27.2180 h1         1 ESB       0.045700
     22 HA          -2.6250     3.2890    26.1630 h1         1 ESB       0.016700
     23 HD2          0.6840     0.8070    27.1150 ha         1 ESB       0.204000
     24 HE1         -3.4550    -1.2970    25.2000 ha         1 ESB       0.205000
     25 HOH         -0.2880    -2.8520    24.6360 ho         1 ESB       0.500000
     26 HN          -0.4220     2.8690    25.4030 hn         1 ESB       0.388500
     27 HB          -0.7310     2.3660    28.3700 hc         1 ESB       0.069700
     28 HBA         -2.4580     2.1260    28.3930 hc         1 ESB       0.069700
     29 CB          -1.6000     2.2240    27.7160 c3         1 ESB      -0.027200
     30 HNA         -0.8050     4.4360    25.2630 hn         1 ESB       0.388500
@<TRIPOS>BOND
     1     1    10 2   
     2     2     3 1   
     3     2    17 1   
     4     2    18 1   
     5     2    19 1   
     6     3     4 1   
     7     3    20 1   
     8     3    21 1   
     9     4    13 2   
    10     5     6 1   
    11     5    26 1   
    12     5    30 1   
    13     6     7 1   
    14     6    22 1   
    15     6    29 1   
    16     7     8 1   
    17     7    16 1   
    18     9    10 1   
    19     9    11 2   
    20     9    29 1   
    21    10    12 1   
    22    11    13 1   
    23    11    23 1   
    24    12    14 2   
    25    12    24 1   
    26    13    14 1   
    27    14    15 1   
    28    15    25 1   
    29    27    29 1   
    30    28    29 1   
@<TRIPOS>SUBSTRUCTURE
     1 ESB         1 TEMP              0 ****  ****    0 ROOT
