@<TRIPOS>MOLECULE
ESD
   16    15     1     0     0
SMALL
No Charge or Current Charge


@<TRIPOS>ATOM
      1 N            1.5140    -1.5190     0.7330 n8         1 ESD      -1.000200
      2 CG           1.9660     0.2810    -0.9590 c3         1 ESD       0.027600
      3 SB           1.3170     1.8570    -1.6820 ss         1 ESD      -0.412000
      4 CD           1.0220    -0.2560     0.1400 c3         1 ESD       0.158800
      5 CA           2.6580     2.2120    -2.9290 c3         1 ESD      -0.063400
      6 C            2.4300     3.5080    -3.7480 c          1 ESD       0.734000
      7 O            2.8930     4.5560    -3.3160 o          1 ESD      -0.718000
      8 OXT          1.8110     3.4280    -4.8000 o          1 ESD      -0.718000
      9 H            1.5150    -2.2490     0.0090 hn         1 ESD       0.379500
     10 HN2          0.8250    -1.8570     1.4160 hn         1 ESD       0.379500
     11 HG1          2.9610     0.4680    -0.5340 h1         1 ESD       0.046700
     12 HG2          2.0650    -0.4620    -1.7610 h1         1 ESD       0.046700
     13 HD2          0.0250    -0.4320    -0.2880 h1         1 ESD       0.035200
     14 HD1          0.9280     0.4940     0.9380 h1         1 ESD       0.035200
     15 HA2          2.7260     1.3680    -3.6270 h1         1 ESD       0.035200
     16 HA1          3.6180     2.2970    -2.4040 h1         1 ESD       0.035200
@<TRIPOS>BOND
     1     1     4 1   
     2     1     9 1   
     3     1    10 1   
     4     2     3 1   
     5     2     4 1   
     6     2    11 1   
     7     2    12 1   
     8     3     5 1   
     9     4    13 1   
    10     4    14 1   
    11     5     6 1   
    12     5    15 1   
    13     5    16 1   
    14     6     7 1   
    15     6     8 1   
@<TRIPOS>SUBSTRUCTURE
     1 ESD         1 TEMP              0 ****  ****    0 ROOT
