@<TRIPOS>MOLECULE
ESD
   16    15     1     0     0
SMALL
abcg2


@<TRIPOS>ATOM
      1 N            1.5070    -1.5030     0.6050 n8         1 ESD      -1.000200
      2 CG           1.9620     0.2480    -1.0280 c3         1 ESD       0.027600
      3 SB           1.4940     1.9210    -1.5580 ss         1 ESD      -0.412000
      4 CD           1.1480    -0.1550     0.1920 c3         1 ESD       0.158800
      5 CA           2.6060     2.1090    -2.9710 c3         1 ESD      -0.063400
      6 C            2.3890     3.4730    -3.6530 c          1 ESD       0.734000
      7 O            1.5420     4.2290    -3.1450 o          1 ESD      -0.718000
      8 OXT          3.0930     3.6840    -4.6570 o          1 ESD      -0.718000
      9 H            1.1640    -2.1650    -0.0800 hn         1 ESD       0.379500
     10 HN2          1.0230    -1.7300     1.4650 hn         1 ESD       0.379500
     11 HG1          3.0270     0.2160    -0.7900 h1         1 ESD       0.046700
     12 HG2          1.7850    -0.4540    -1.8480 h1         1 ESD       0.046700
     13 HD2          0.0790    -0.0300    -0.0310 h1         1 ESD       0.035200
     14 HD1          1.3750     0.5280     1.0140 h1         1 ESD       0.035200
     15 HA2          2.4360     1.3030    -3.6900 h1         1 ESD       0.035200
     16 HA1          3.6450     2.0210    -2.6400 h1         1 ESD       0.035200
@<TRIPOS>BOND
     1     1     4 1   
     2     1     9 1   
     3     1    10 1   
     4     2     3 1   
     5     2     4 1   
     6     2    11 1   
     7     2    12 1   
     8     3     5 1   
     9     4    13 1   
    10     4    14 1   
    11     5     6 1   
    12     5    15 1   
    13     5    16 1   
    14     6     7 1   
    15     6     8 1   
@<TRIPOS>SUBSTRUCTURE
     1 ESD         1 TEMP              0 ****  ****    0 ROOT
