@<TRIPOS>MOLECULE
ESE
   40    42     1     0     0
SMALL
No Charge or Current Charge


@<TRIPOS>ATOM
      1 C01         -3.6000     1.1190     0.5750 ca         1 ESE      -0.174500
      2 C02         -4.5810     0.2440     0.0820 ca         1 ESE       0.135100
      3 C03         -4.2030    -0.9710    -0.5060 ca         1 ESE      -0.174500
      4 C04         -2.8440    -1.3170    -0.6040 ca         1 ESE      -0.068000
      5 C05         -1.8510    -0.4450    -0.1110 ca         1 ESE      -0.110300
      6 C06         -2.2400     0.7760     0.4800 ca         1 ESE      -0.068000
      7 C07         -0.3680    -0.8310    -0.2220 c6         1 ESE      -0.009400
      8 C08          0.4180     0.1610    -1.1190 c6         1 ESE      -0.065400
      9 C09          1.9160    -0.2510    -1.2540 c5         1 ESE      -0.061700
     10 C10          2.6490    -0.5230     0.1060 c5         1 ESE      -0.037000
     11 C11          1.7810    -1.4130     1.0550 c6         1 ESE      -0.062400
     12 C12          0.3070    -0.9430     1.1720 c6         1 ESE      -0.069400
     13 C13          2.8050     0.8590    -1.8940 c5         1 ESE      -0.070400
     14 C14          3.3360     1.6970    -0.6820 c5         1 ESE      -0.115400
     15 C15          2.8170     0.9610     0.5940 c5         1 ESE       0.170300
     16 C16          4.0130    -1.2690    -0.0820 c3         1 ESE      -0.075100
     17 O01         -5.9010     0.5690     0.1710 oh         1 ESE      -0.535100
     18 O02          3.7220     1.0970     1.6890 oh         1 ESE      -0.654000
     19 H1          -3.8830     2.0640     1.0330 ha         1 ESE       0.119500
     20 H2          -4.9630    -1.6480    -0.8880 ha         1 ESE       0.119500
     21 H3          -2.5660    -2.2630    -1.0630 ha         1 ESE       0.111000
     22 H4          -1.4900     1.4630     0.8650 ha         1 ESE       0.111000
     23 H5          -0.3060    -1.8210    -0.6960 hc         1 ESE       0.049700
     24 H6          -0.0390     0.1920    -2.1180 hc         1 ESE       0.040700
     25 H7           0.3320     1.1800    -0.7210 hc         1 ESE       0.040700
     26 H8           1.9060    -1.1510    -1.8800 hc         1 ESE       0.054700
     27 H9           1.7850    -2.4500     0.6900 hc         1 ESE       0.046200
     28 H10          2.2340    -1.4430     2.0560 hc         1 ESE       0.046200
     29 H11          0.2590     0.0170     1.7030 hc         1 ESE       0.041700
     30 H12         -0.2510    -1.6590     1.7910 hc         1 ESE       0.041700
     31 H13          3.6360     0.4220    -2.4590 hc         1 ESE       0.044200
     32 H14          2.2440     1.4760    -2.6060 hc         1 ESE       0.044200
     33 H15          4.4310     1.7510    -0.7050 hc         1 ESE       0.046200
     34 H16          2.9720     2.7310    -0.7140 hc         1 ESE       0.046200
     35 H17          1.8470     1.3850     0.8830 h1         1 ESE       0.029700
     36 H18          4.7350    -0.7000    -0.6790 hc         1 ESE       0.036033
     37 H19          4.4900    -1.4720     0.8840 hc         1 ESE       0.036033
     38 H20          3.8690    -2.2330    -0.5830 hc         1 ESE       0.036033
     39 H21         -5.9750     1.4460     0.6070 ho         1 ESE       0.463000
     40 H22          3.8000     2.0590     1.8710 ho         1 ESE       0.439000
@<TRIPOS>BOND
     1     1     2 ar  
     2     1     6 ar  
     3     1    19 1   
     4     2     3 ar  
     5     2    17 1   
     6     3     4 ar  
     7     3    20 1   
     8     4     5 ar  
     9     4    21 1   
    10     5     6 ar  
    11     5     7 1   
    12     6    22 1   
    13     7     8 1   
    14     7    12 1   
    15     7    23 1   
    16     8     9 1   
    17     8    24 1   
    18     8    25 1   
    19     9    10 1   
    20     9    13 1   
    21     9    26 1   
    22    10    11 1   
    23    10    15 1   
    24    10    16 1   
    25    11    12 1   
    26    11    27 1   
    27    11    28 1   
    28    12    29 1   
    29    12    30 1   
    30    13    14 1   
    31    13    31 1   
    32    13    32 1   
    33    14    15 1   
    34    14    33 1   
    35    14    34 1   
    36    15    18 1   
    37    15    35 1   
    38    16    36 1   
    39    16    37 1   
    40    16    38 1   
    41    17    39 1   
    42    18    40 1   
@<TRIPOS>SUBSTRUCTURE
     1 ESE         1 TEMP              0 ****  ****    0 ROOT
