@<TRIPOS>MOLECULE
ESE
   40    42     1     0     0
SMALL
abcg2


@<TRIPOS>ATOM
      1 C01         -3.5830     1.0900     0.5570 ca         1 ESE      -0.174500
      2 C02         -4.5450     0.2260     0.0400 ca         1 ESE       0.135100
      3 C03         -4.1390    -0.9680    -0.5470 ca         1 ESE      -0.174500
      4 C04         -2.7890    -1.2830    -0.6080 ca         1 ESE      -0.068000
      5 C05         -1.8100    -0.4360    -0.0950 ca         1 ESE      -0.110300
      6 C06         -2.2380     0.7560     0.4860 ca         1 ESE      -0.068000
      7 C07         -0.3500    -0.8030    -0.1720 c6         1 ESE      -0.009400
      8 C08          0.4330     0.1410    -1.0850 c6         1 ESE      -0.065400
      9 C09          1.9040    -0.2570    -1.2380 c5         1 ESE      -0.061700
     10 C10          2.6110    -0.5090     0.1080 c5         1 ESE      -0.037000
     11 C11          1.7600    -1.3240     1.0850 c6         1 ESE      -0.062400
     12 C12          0.3160    -0.8550     1.2030 c6         1 ESE      -0.069400
     13 C13          2.7190     0.8840    -1.8760 c5         1 ESE      -0.070400
     14 C14          3.3390     1.6630    -0.6970 c5         1 ESE      -0.115400
     15 C15          2.8810     0.9280     0.5740 c5         1 ESE       0.170300
     16 C16          3.9280    -1.2540    -0.1250 c3         1 ESE      -0.075100
     17 O01         -5.8680     0.4950     0.0830 oh         1 ESE      -0.535100
     18 O02          3.8060     0.9550     1.6370 oh         1 ESE      -0.654000
     19 H1          -3.8820     2.0250     1.0180 ha         1 ESE       0.119500
     20 H2          -4.8780    -1.6500    -0.9500 ha         1 ESE       0.119500
     21 H3          -2.4930    -2.2200    -1.0660 ha         1 ESE       0.111000
     22 H4          -1.5160     1.4500     0.9020 ha         1 ESE       0.111000
     23 H5          -0.2870    -1.8100    -0.6030 hc         1 ESE       0.049700
     24 H6          -0.0250     0.1660    -2.0780 hc         1 ESE       0.040700
     25 H7           0.3540     1.1640    -0.6990 hc         1 ESE       0.040700
     26 H8           1.9420    -1.1630    -1.8530 hc         1 ESE       0.054700
     27 H9           1.7540    -2.3670     0.7490 hc         1 ESE       0.046200
     28 H10          2.2390    -1.3290     2.0690 hc         1 ESE       0.046200
     29 H11          0.2690     0.1310     1.6770 hc         1 ESE       0.041700
     30 H12         -0.2350    -1.5330     1.8600 hc         1 ESE       0.041700
     31 H13          3.4990     0.4840    -2.5260 hc         1 ESE       0.044200
     32 H14          2.0870     1.5160    -2.5030 hc         1 ESE       0.044200
     33 H15          4.4300     1.6470    -0.7500 hc         1 ESE       0.046200
     34 H16          3.0390     2.7120    -0.6850 hc         1 ESE       0.046200
     35 H17          1.9310     1.3690     0.9090 h1         1 ESE       0.029700
     36 H18          4.6220    -0.7020    -0.7620 hc         1 ESE       0.036033
     37 H19          4.4390    -1.4620     0.8160 hc         1 ESE       0.036033
     38 H20          3.7320    -2.2130    -0.6080 hc         1 ESE       0.036033
     39 H21         -6.0220     1.3400     0.5200 ho         1 ESE       0.463000
     40 H22          3.8690     1.8600     1.9550 ho         1 ESE       0.439000
@<TRIPOS>BOND
     1     1     2 ar  
     2     1     6 ar  
     3     1    19 1   
     4     2     3 ar  
     5     2    17 1   
     6     3     4 ar  
     7     3    20 1   
     8     4     5 ar  
     9     4    21 1   
    10     5     6 ar  
    11     5     7 1   
    12     6    22 1   
    13     7     8 1   
    14     7    12 1   
    15     7    23 1   
    16     8     9 1   
    17     8    24 1   
    18     8    25 1   
    19     9    10 1   
    20     9    13 1   
    21     9    26 1   
    22    10    11 1   
    23    10    15 1   
    24    10    16 1   
    25    11    12 1   
    26    11    27 1   
    27    11    28 1   
    28    12    29 1   
    29    12    30 1   
    30    13    14 1   
    31    13    31 1   
    32    13    32 1   
    33    14    15 1   
    34    14    33 1   
    35    14    34 1   
    36    15    18 1   
    37    15    35 1   
    38    16    36 1   
    39    16    37 1   
    40    16    38 1   
    41    17    39 1   
    42    18    40 1   
@<TRIPOS>SUBSTRUCTURE
     1 ESE         1 TEMP              0 ****  ****    0 ROOT
