@<TRIPOS>MOLECULE
ESF
   53    54     1     0     0
SMALL
No Charge or Current Charge


@<TRIPOS>ATOM
      1 C10        168.9340   175.8060   139.8160 c3         1 ESF      -0.059100
      2 C13        169.6490   175.5110   142.9540 c          1 ESF       0.549000
      3 C15        166.6210   173.4180   141.8700 ca         1 ESF      -0.086000
      4 C21        165.4950   173.4330   141.0360 ca         1 ESF      -0.112000
      5 C22        165.4890   174.2210   139.8860 ca         1 ESF      -0.098000
      6 C24        167.3580   171.2930   145.6660 c3         1 ESF      -0.110100
      7 C08        168.9870   174.1310   142.5810 c3         1 ESF       0.095000
      8 C09        167.7740   174.2070   141.5980 ca         1 ESF      -0.063300
      9 C11        167.7730   174.9710   140.3810 ca         1 ESF      -0.062300
     10 C12        170.2680   175.7610   140.5570 c3         1 ESF       0.108000
     11 C14        167.8500   172.7100   146.0480 c3         1 ESF       0.026700
     12 C16        166.6230   174.9730   139.5620 ca         1 ESF      -0.115000
     13 C18        166.7590   174.9160   150.1390 c3         1 ESF      -0.080700
     14 C19        166.1670   173.6420   149.4580 c3         1 ESF       0.101300
     15 N05        170.1300   176.3150   141.9070 n          1 ESF      -0.410800
     16 N06        168.7380   173.3420   143.8200 ns         1 ESF      -0.502900
     17 N07        167.0320   173.2650   147.1490 ns         1 ESF      -0.487900
     18 O01        169.7590   175.9020   144.1120 o          1 ESF      -0.539000
     19 O02        165.6840   172.7330   150.4770 oh         1 ESF      -0.654000
     20 H1         169.1270   175.4890   138.7840 hc         1 ESF       0.060200
     21 H2         168.6210   176.8550   139.7490 hc         1 ESF       0.060200
     22 H3         166.5740   172.7640   142.7330 ha         1 ESF       0.110000
     23 H7         164.6270   172.8250   141.2820 ha         1 ESF       0.113000
     24 H8         164.6170   174.2360   139.2350 ha         1 ESF       0.116000
     25 H9         167.3900   170.6220   146.5330 hc         1 ESF       0.046367
     26 H10        166.3260   171.3280   145.2970 hc         1 ESF       0.046367
     27 H11        167.9870   170.8550   144.8820 hc         1 ESF       0.046367
     28 H12        168.3180   175.5530   151.5390 hc         1 ESF       0.040200
     29 H13        167.7770   173.8880   151.7970 hc         1 ESF       0.040200
     30 H14        168.8440   174.2760   150.4280 hc         1 ESF       0.040200
     31 H15        169.7650   173.5690   142.0510 h1         1 ESF       0.063700
     32 H18        170.6600   174.7370   140.5880 h1         1 ESF       0.050700
     33 H19        171.0000   176.3580   139.9960 h1         1 ESF       0.050700
     34 H20        168.8930   172.6420   146.3870 h1         1 ESF       0.113700
     35 H21        166.6130   175.5610   138.6470 ha         1 ESF       0.109000
     36 H22        165.9780   175.3090   150.8020 hc         1 ESF       0.058700
     37 H23        165.3140   173.9650   148.8470 h1         1 ESF       0.061700
     38 H24        166.1730   176.2600   148.5080 hc         1 ESF       0.040200
     39 H25        167.3580   176.9590   149.6260 hc         1 ESF       0.040200
     40 H26        167.8750   175.7470   148.4370 hc         1 ESF       0.040200
     41 H27        169.3060   172.5170   143.9750 hn         1 ESF       0.317500
     42 H28        166.3330   173.9630   146.9150 hn         1 ESF       0.313500
     43 H29        166.4510   172.1710   150.7370 ho         1 ESF       0.473000
     44 C17        167.8470   173.6750   144.8280 c          1 ESF       0.589100
     45 C20        170.7000   177.6550   142.1730 c3         1 ESF       0.093300
     46 C23        167.1700   172.9380   148.4840 c          1 ESF       0.578100
     47 O03        167.1040   174.6460   144.7550 o          1 ESF      -0.556100
     48 C25        167.0610   176.0360   149.1130 c3         1 ESF      -0.095100
     49 C26        167.9990   174.6360   151.0270 c3         1 ESF      -0.095100
     50 O04        167.9890   172.1090   148.8640 o          1 ESF      -0.598100
     51 H4         170.7980   178.2220   141.2380 h1         1 ESF       0.043367
     52 H5         170.0410   178.2140   142.8510 h1         1 ESF       0.043367
     53 H6         171.6890   177.5500   142.6350 h1         1 ESF       0.043367
@<TRIPOS>BOND
     1     1     9 1   
     2     1    10 1   
     3     1    20 1   
     4     1    21 1   
     5     2     7 1   
     6     2    15 1   
     7     2    18 2   
     8     3     4 ar  
     9     3     8 ar  
    10     3    22 1   
    11     4     5 ar  
    12     4    23 1   
    13     5    12 ar  
    14     5    24 1   
    15     6    11 1   
    16     6    25 1   
    17     6    26 1   
    18     6    27 1   
    19     7     8 1   
    20     7    16 1   
    21     7    31 1   
    22     8     9 ar  
    23     9    12 ar  
    24    10    15 1   
    25    10    32 1   
    26    10    33 1   
    27    11    17 1   
    28    11    34 1   
    29    11    44 1   
    30    12    35 1   
    31    13    14 1   
    32    13    36 1   
    33    13    48 1   
    34    13    49 1   
    35    14    19 1   
    36    14    37 1   
    37    14    46 1   
    38    15    45 1   
    39    16    41 1   
    40    16    44 1   
    41    17    42 1   
    42    17    46 1   
    43    19    43 1   
    44    28    49 1   
    45    29    49 1   
    46    30    49 1   
    47    38    48 1   
    48    39    48 1   
    49    40    48 1   
    50    44    47 2   
    51    45    51 1   
    52    45    52 1   
    53    45    53 1   
    54    46    50 2   
@<TRIPOS>SUBSTRUCTURE
     1 ESF         1 TEMP              0 ****  ****    0 ROOT
