@<TRIPOS>MOLECULE
ESF
   53    54     1     0     0
SMALL
abcg2


@<TRIPOS>ATOM
      1 C10        168.7310   176.3660   140.8990 c3         1 ESF      -0.059100
      2 C13        170.2580   174.5050   142.8630 c          1 ESF       0.549000
      3 C15        166.4640   174.3870   143.2690 ca         1 ESF      -0.086000
      4 C21        165.3040   175.1330   143.1810 ca         1 ESF      -0.112000
      5 C22        165.2900   176.2880   142.4130 ca         1 ESF      -0.098000
      6 C24        168.6230   170.8510   145.8050 c3         1 ESF      -0.110100
      7 C08        168.8630   173.8370   142.7820 c3         1 ESF       0.095000
      8 C09        167.6440   174.7560   142.6160 ca         1 ESF      -0.063300
      9 C11        167.6110   175.8870   141.7900 ca         1 ESF      -0.062300
     10 C12        169.8250   175.3580   140.6190 c3         1 ESF       0.108000
     11 C14        168.6990   172.2970   146.2720 c3         1 ESF       0.026700
     12 C16        166.4330   176.6390   141.7230 ca         1 ESF      -0.115000
     13 C18        165.6960   174.7720   148.5050 c3         1 ESF      -0.080700
     14 C19        166.4790   173.5810   149.0960 c3         1 ESF       0.101300
     15 N05        170.6850   175.1480   141.7660 n          1 ESF      -0.410800
     16 N06        168.7330   172.9480   143.9070 ns         1 ESF      -0.502900
     17 N07        167.6330   172.5670   147.2100 ns         1 ESF      -0.487900
     18 O01        170.9620   174.3710   143.8480 o          1 ESF      -0.539000
     19 O02        166.8020   173.8070   150.4410 oh         1 ESF      -0.654000
     20 H1         168.2920   176.6590   139.9420 hc         1 ESF       0.060200
     21 H2         169.1800   177.2750   141.3100 hc         1 ESF       0.060200
     22 H3         166.4390   173.4820   143.8590 ha         1 ESF       0.110000
     23 H7         164.4180   174.8100   143.7130 ha         1 ESF       0.113000
     24 H8         164.3960   176.8940   142.3350 ha         1 ESF       0.116000
     25 H9         168.6600   170.1900   146.6700 hc         1 ESF       0.046367
     26 H10        167.7000   170.6420   145.2620 hc         1 ESF       0.046367
     27 H11        169.4700   170.5890   145.1700 hc         1 ESF       0.046367
     28 H12        165.8980   176.8910   148.1490 hc         1 ESF       0.040200
     29 H13        166.9730   176.2990   149.4030 hc         1 ESF       0.040200
     30 H14        167.3260   175.9650   147.7010 hc         1 ESF       0.040200
     31 H15        168.8940   173.1820   141.9050 h1         1 ESF       0.063700
     32 H18        169.4010   174.4110   140.2760 h1         1 ESF       0.050700
     33 H19        170.4450   175.7200   139.8010 h1         1 ESF       0.050700
     34 H20        169.6440   172.4410   146.7990 h1         1 ESF       0.113700
     35 H21        166.4210   177.5190   141.0890 ha         1 ESF       0.109000
     36 H22        164.8760   174.9320   149.2130 hc         1 ESF       0.058700
     37 H23        165.8300   172.6980   149.0470 h1         1 ESF       0.061700
     38 H24        164.5320   173.5110   147.1520 hc         1 ESF       0.040200
     39 H25        164.3500   175.2370   146.8850 hc         1 ESF       0.040200
     40 H26        165.8150   174.4320   146.3510 hc         1 ESF       0.040200
     41 H27        168.8870   171.9710   143.7240 hn         1 ESF       0.317500
     42 H28        166.7060   172.2680   146.9450 hn         1 ESF       0.313500
     43 H29        167.7220   174.1060   150.4610 ho         1 ESF       0.473000
     44 C17        168.6630   173.3790   145.1800 c          1 ESF       0.589100
     45 C20        171.9910   175.7820   141.8120 c3         1 ESF       0.093300
     46 C23        167.7670   173.2900   148.3280 c          1 ESF       0.578100
     47 O03        168.5350   174.5490   145.4850 o          1 ESF      -0.556100
     48 C25        165.0710   174.4620   147.1480 c3         1 ESF      -0.095100
     49 C26        166.5270   176.0490   148.4400 c3         1 ESF      -0.095100
     50 O04        168.8380   173.6970   148.7590 o          1 ESF      -0.598100
     51 H4         172.2290   176.1720   140.8270 h1         1 ESF       0.043367
     52 H5         172.0190   176.6090   142.5240 h1         1 ESF       0.043367
     53 H6         172.7630   175.0660   142.0890 h1         1 ESF       0.043367
@<TRIPOS>BOND
     1     1     9 1   
     2     1    10 1   
     3     1    20 1   
     4     1    21 1   
     5     2     7 1   
     6     2    15 1   
     7     2    18 2   
     8     3     4 ar  
     9     3     8 ar  
    10     3    22 1   
    11     4     5 ar  
    12     4    23 1   
    13     5    12 ar  
    14     5    24 1   
    15     6    11 1   
    16     6    25 1   
    17     6    26 1   
    18     6    27 1   
    19     7     8 1   
    20     7    16 1   
    21     7    31 1   
    22     8     9 ar  
    23     9    12 ar  
    24    10    15 1   
    25    10    32 1   
    26    10    33 1   
    27    11    17 1   
    28    11    34 1   
    29    11    44 1   
    30    12    35 1   
    31    13    14 1   
    32    13    36 1   
    33    13    48 1   
    34    13    49 1   
    35    14    19 1   
    36    14    37 1   
    37    14    46 1   
    38    15    45 1   
    39    16    41 1   
    40    16    44 1   
    41    17    42 1   
    42    17    46 1   
    43    19    43 1   
    44    28    49 1   
    45    29    49 1   
    46    30    49 1   
    47    38    48 1   
    48    39    48 1   
    49    40    48 1   
    50    44    47 2   
    51    45    51 1   
    52    45    52 1   
    53    45    53 1   
    54    46    50 2   
@<TRIPOS>SUBSTRUCTURE
     1 ESF         1 TEMP              0 ****  ****    0 ROOT
