@<TRIPOS>MOLECULE
ESG
   51    51     1     0     0
SMALL
No Charge or Current Charge


@<TRIPOS>ATOM
      1 C1          -2.6400    -4.4050    -0.7830 c          1 ESG       0.726000
      2 N1          -4.6730    -2.7410    -0.8530 n8         1 ESG      -0.994200
      3 C2           0.1660     3.4940    -0.8480 c          1 ESG       0.576100
      4 N2          -0.8720     1.2500    -0.4930 ns         1 ESG      -0.494900
      5 N4           2.5700    -2.9850    -0.0930 n          1 ESG      -0.384400
      6 O11         -2.3920    -5.1150    -1.7500 o          1 ESG      -0.736500
      7 O12         -2.5340    -4.7940     0.3750 o          1 ESG      -0.736500
      8 C8           2.5230    -3.9930    -1.1730 c3         1 ESG       0.107000
      9 C3           3.1890    -3.2530     1.1220 c          1 ESG       0.573000
     10 O31          1.8660     6.7480     1.0770 o          1 ESG      -0.734500
     11 O32          1.0950     8.2090    -0.3060 o          1 ESG      -0.734500
     12 C4           2.8770    -2.0270     1.9810 c5         1 ESG      -0.150400
     13 C5           2.6520    -0.9000     0.9290 c5         1 ESG      -0.036700
     14 C6           2.1590    -1.6760    -0.3190 c          1 ESG       0.572000
     15 CA1         -3.1910    -2.9360    -1.0480 c3         1 ESG       0.019500
     16 CA2          0.0420     2.2630     0.0930 c3         1 ESG       0.032700
     17 CA3          0.9060     5.9190    -0.9570 c3         1 ESG      -0.055000
     18 CB1         -2.4030    -1.8720    -0.2320 c3         1 ESG      -0.093400
     19 CB2          1.4400     1.6570     0.3680 c3         1 ESG       0.057600
     20 CD1         -1.8800     0.6010     0.1850 c          1 ESG       0.601100
     21 OE1         -2.1520     0.8470     1.3510 o          1 ESG      -0.596100
     22 CG1         -2.6840    -0.4020    -0.6530 c3         1 ESG      -0.154400
     23 SG2          1.3640     0.2760     1.6040 ss         1 ESG      -0.373000
     24 HN1         -4.9120    -2.9660     0.1210 hn         1 ESG       0.377000
     25 HN2         -0.7540     1.0080    -1.4710 hn         1 ESG       0.309500
     26 HN3          0.9330     4.5770     0.7230 hn         1 ESG       0.339500
     27 H1           1.1180    -5.3430    -0.1970 hc         1 ESG       0.045033
     28 H1'A         0.3560    -4.1540    -1.2800 hc         1 ESG       0.045033
     29 H1'B         1.2220    -5.5500    -1.9600 hc         1 ESG       0.045033
     30 H2           3.3790    -4.6740    -1.0820 h1         1 ESG       0.057200
     31 H2'A         2.6140    -3.4910    -2.1460 h1         1 ESG       0.057200
     32 H4           1.9290    -2.2380     2.4890 hc         1 ESG       0.095200
     33 H4'A         3.6520    -1.8420     2.7320 hc         1 ESG       0.095200
     34 H5           3.5870    -0.3850     0.6710 h1         1 ESG       0.107700
     35 HA2         -0.3760     2.6260     1.0400 h1         1 ESG       0.093700
     36 HA3         -0.0220     6.2210    -1.4610 h1         1 ESG       0.036700
     37 HA3A         1.6930     5.7890    -1.7100 h1         1 ESG       0.036700
     38 HB1         -2.6210    -1.9950     0.8370 hc         1 ESG       0.059200
     39 HB1A        -1.3290    -2.0670    -0.3510 hc         1 ESG       0.059200
     40 HB2          1.8590     1.2840    -0.5760 h1         1 ESG       0.081700
     41 HB2A         2.1190     2.4300     0.7510 h1         1 ESG       0.081700
     42 HG1         -2.4290    -0.2920    -1.7150 hc         1 ESG       0.045700
     43 HG1A        -3.7480    -0.1830    -0.5070 hc         1 ESG       0.045700
     44 H23         -4.8930    -1.7430    -0.9370 hn         1 ESG       0.377000
     45 H24         -2.9870    -2.7300    -2.1080 h1         1 ESG       0.036700
     46 O2          -0.1690     3.4770    -2.0270 o          1 ESG      -0.642100
     47 O4           1.5630    -1.2720    -1.3080 o          1 ESG      -0.496000
     48 C7           1.2230    -4.8110    -1.1500 c3         1 ESG      -0.111100
     49 N3           0.6820     4.6310    -0.2600 ns         1 ESG      -0.460900
     50 O1           3.9550    -4.1800     1.3400 o          1 ESG      -0.522000
     51 C9           1.3380     7.0540     0.0150 c          1 ESG       0.714000
@<TRIPOS>BOND
     1     1     6 1   
     2     1     7 1   
     3     1    15 1   
     4     2    15 1   
     5     2    24 1   
     6     2    44 1   
     7     3    16 1   
     8     3    46 2   
     9     3    49 1   
    10     4    16 1   
    11     4    20 1   
    12     4    25 1   
    13     5     8 1   
    14     5     9 1   
    15     5    14 1   
    16     8    30 1   
    17     8    31 1   
    18     8    48 1   
    19     9    12 1   
    20     9    50 2   
    21    10    51 1   
    22    11    51 1   
    23    12    13 1   
    24    12    32 1   
    25    12    33 1   
    26    13    14 1   
    27    13    23 1   
    28    13    34 1   
    29    14    47 2   
    30    15    18 1   
    31    15    45 1   
    32    16    19 1   
    33    16    35 1   
    34    17    36 1   
    35    17    37 1   
    36    17    49 1   
    37    17    51 1   
    38    18    22 1   
    39    18    38 1   
    40    18    39 1   
    41    19    23 1   
    42    19    40 1   
    43    19    41 1   
    44    20    21 2   
    45    20    22 1   
    46    22    42 1   
    47    22    43 1   
    48    26    49 1   
    49    27    48 1   
    50    28    48 1   
    51    29    48 1   
@<TRIPOS>SUBSTRUCTURE
     1 ESG         1 TEMP              0 ****  ****    0 ROOT
