@<TRIPOS>MOLECULE
ESG
   51    51     1     0     0
SMALL
abcg2


@<TRIPOS>ATOM
      1 C1          -6.5530    -2.3350     0.6140 c          1 ESG       0.726000
      2 N1          -6.1620    -1.2240    -1.5550 n8         1 ESG      -0.994200
      3 C2          -0.2270     2.4440    -0.6090 c          1 ESG       0.576100
      4 N2          -1.0260     0.1600    -0.2170 ns         1 ESG      -0.494900
      5 N4           4.6850    -2.6370    -0.3450 n          1 ESG      -0.384400
      6 O11         -6.1590    -3.1930     1.4300 o          1 ESG      -0.736500
      7 O12         -7.6800    -1.8040     0.5820 o          1 ESG      -0.736500
      8 C8           5.3590    -3.3040    -1.4470 c3         1 ESG       0.107000
      9 C3           4.6260    -3.1470     0.9330 c          1 ESG       0.573000
     10 O31          1.5570     5.3620     1.3800 o          1 ESG      -0.734500
     11 O32          1.1550     6.9830    -0.1050 o          1 ESG      -0.734500
     12 C4           3.8260    -2.1980     1.7890 c5         1 ESG      -0.150400
     13 C5           3.3970    -1.0790     0.8460 c5         1 ESG      -0.036700
     14 C6           4.0010    -1.4550    -0.4910 c          1 ESG       0.572000
     15 CA1         -5.5100    -1.8580    -0.4220 c3         1 ESG       0.019500
     16 CA2         -0.0290     1.1260     0.1560 c3         1 ESG       0.032700
     17 CA3          0.3300     4.8300    -0.5930 c3         1 ESG      -0.055000
     18 CB1         -4.4820    -0.9750     0.3070 c3         1 ESG      -0.093400
     19 CB2          1.3620     0.5820    -0.1440 c3         1 ESG       0.057600
     20 CD1         -2.3250     0.3420     0.1100 c          1 ESG       0.601100
     21 OE1         -2.6760     1.2130     0.8910 o          1 ESG      -0.596100
     22 CG1         -3.2970    -0.5940    -0.5690 c3         1 ESG      -0.154400
     23 SG2          1.5870    -0.9910     0.7430 ss         1 ESG      -0.373000
     24 HN1         -6.7810    -0.5030    -1.2080 hn         1 ESG       0.377000
     25 HN2         -0.8180    -0.4630    -0.9830 hn         1 ESG       0.309500
     26 HN3          0.7570     3.4370     0.8880 hn         1 ESG       0.339500
     27 H1           3.9960    -4.9800    -1.6270 hc         1 ESG       0.045033
     28 H1'A         3.6030    -3.6150    -2.6800 hc         1 ESG       0.045033
     29 H1'B         4.9680    -4.6610    -3.0630 hc         1 ESG       0.045033
     30 H2           6.1770    -3.8860    -1.0270 h1         1 ESG       0.057200
     31 H2'A         5.8010    -2.5360    -2.0790 h1         1 ESG       0.057200
     32 H4           2.9930    -2.7410     2.2390 hc         1 ESG       0.095200
     33 H4'A         4.4460    -1.8300     2.6070 hc         1 ESG       0.095200
     34 H5           3.7840    -0.1060     1.1550 h1         1 ESG       0.107700
     35 HA2         -0.1030     1.3160     1.2300 h1         1 ESG       0.093700
     36 HA3         -0.6880     5.2000    -0.7480 h1         1 ESG       0.036700
     37 HA3A         0.8080     4.8140    -1.5770 h1         1 ESG       0.036700
     38 HB1         -4.9800    -0.0720     0.6710 hc         1 ESG       0.059200
     39 HB1A        -4.1180    -1.5130     1.1860 hc         1 ESG       0.059200
     40 HB2          1.5020     0.4370    -1.2160 h1         1 ESG       0.081700
     41 HB2A         2.1150     1.2880     0.2050 h1         1 ESG       0.081700
     42 HG1         -2.7830    -1.4930    -0.9180 hc         1 ESG       0.045700
     43 HG1A        -3.6340    -0.0700    -1.4710 hc         1 ESG       0.045700
     44 H23         -5.4820    -0.7660    -2.1480 hn         1 ESG       0.377000
     45 H24         -4.9800    -2.7450    -0.7890 h1         1 ESG       0.036700
     46 O2          -0.8000     2.4740    -1.6880 o          1 ESG      -0.642100
     47 O4           3.9100    -0.8390    -1.5240 o          1 ESG      -0.496000
     48 C7           4.4200    -4.1910    -2.2470 c3         1 ESG      -0.111100
     49 N3           0.3110     3.5090    -0.0170 ns         1 ESG      -0.460900
     50 O1           5.1390    -4.1820     1.2790 o          1 ESG      -0.522000
     51 C9           1.0890     5.8160     0.3180 c          1 ESG       0.714000
@<TRIPOS>BOND
     1     1     6 1   
     2     1     7 1   
     3     1    15 1   
     4     2    15 1   
     5     2    24 1   
     6     2    44 1   
     7     3    16 1   
     8     3    46 2   
     9     3    49 1   
    10     4    16 1   
    11     4    20 1   
    12     4    25 1   
    13     5     8 1   
    14     5     9 1   
    15     5    14 1   
    16     8    30 1   
    17     8    31 1   
    18     8    48 1   
    19     9    12 1   
    20     9    50 2   
    21    10    51 1   
    22    11    51 1   
    23    12    13 1   
    24    12    32 1   
    25    12    33 1   
    26    13    14 1   
    27    13    23 1   
    28    13    34 1   
    29    14    47 2   
    30    15    18 1   
    31    15    45 1   
    32    16    19 1   
    33    16    35 1   
    34    17    36 1   
    35    17    37 1   
    36    17    49 1   
    37    17    51 1   
    38    18    22 1   
    39    18    38 1   
    40    18    39 1   
    41    19    23 1   
    42    19    40 1   
    43    19    41 1   
    44    20    21 2   
    45    20    22 1   
    46    22    42 1   
    47    22    43 1   
    48    26    49 1   
    49    27    48 1   
    50    28    48 1   
    51    29    48 1   
@<TRIPOS>SUBSTRUCTURE
     1 ESG         1 TEMP              0 ****  ****    0 ROOT
