@<TRIPOS>MOLECULE
ESH
   63    67     1     0     0
SMALL
No Charge or Current Charge


@<TRIPOS>ATOM
      1 N1          -5.2300     1.0300    -8.4100 n2         1 ESH      -0.847100
      2 C3          -5.6060     1.2020    -7.2120 ce         1 ESH       0.660800
      3 N2          -6.5740     2.1080    -6.9870 nv         1 ESH      -1.032200
      4 C4          -4.9150     0.5990    -6.0290 ca         1 ESH      -0.189900
      5 C9          -5.5770     0.4740    -4.7850 ca         1 ESH      -0.091500
      6 C8          -4.9330    -0.1090    -3.6800 ca         1 ESH      -0.088000
      7 C7          -3.6200    -0.6030    -3.7860 ca         1 ESH      -0.070300
      8 C6          -2.9660    -0.5090    -5.0330 ca         1 ESH      -0.088000
      9 C5          -3.6030     0.0830    -6.1370 ca         1 ESH      -0.091500
     10 C10         -2.9410    -1.2140    -2.5510 c5         1 ESH       0.232800
     11 N11         -1.4490    -1.1560    -2.6170 n3         1 ESH      -0.697600
     12 C12         -0.9380     0.0630    -1.9410 c5         1 ESH       0.148800
     13 C13         -1.0080    -0.2650    -0.4110 c5         1 ESH      -0.111400
     14 C14         -1.2090    -1.8140    -0.3320 c5         1 ESH      -0.105400
     15 C15         -0.9350    -2.2630    -1.8010 c5         1 ESH       0.159500
     16 C16         -1.8840    -3.4370    -2.1960 c5         1 ESH      -0.070700
     17 C17         -1.4550    -3.9200    -3.6360 c5         1 ESH       0.126700
     18 N19         -2.7630    -4.0570    -4.3190 n          1 ESH      -0.407800
     19 C20         -3.8210    -3.3690    -3.7200 c          1 ESH       0.577000
     20 O21         -4.9920    -3.4660    -4.0660 o          1 ESH      -0.544000
     21 C22         -3.2680    -2.7510    -2.4350 c5         1 ESH      -0.156700
     22 C23         -2.9760    -4.7160    -5.6250 c3         1 ESH       0.156300
     23 C24         -2.8930    -3.7480    -6.7960 ca         1 ESH      -0.112300
     24 C32         -4.0650    -3.3280    -7.4550 ca         1 ESH      -0.081000
     25 C31         -3.9850    -2.4420    -8.5430 ca         1 ESH      -0.110000
     26 C30         -2.7350    -1.9670    -8.9700 ca         1 ESH       0.118000
     27 C26         -1.5640    -2.3740    -8.3110 ca         1 ESH      -0.110000
     28 C25         -1.6420    -3.2650    -7.2270 ca         1 ESH      -0.081000
     29 C18         -0.5250    -5.1770    -3.6890 c3         1 ESH      -0.071700
     30 C41          0.8490    -4.9370    -3.0210 c3         1 ESH      -0.088100
     31 C42         -1.1760    -6.4710    -3.1340 c3         1 ESH      -0.088100
     32 Cl30        -2.6360    -0.8480   -10.3220 cl         1 ESH      -0.203000
     33 H20         -4.4910     0.3170    -8.4060 hn         1 ESH       0.391400
     34 H12         -6.7600     2.7040    -7.7830 hn         1 ESH       0.465000
     35 H11         -6.5390     2.5690    -6.0870 hn         1 ESH       0.465000
     36 H5          -6.6010     0.8230    -4.6650 ha         1 ESH       0.120000
     37 H6          -5.4630    -0.1820    -2.7330 ha         1 ESH       0.121500
     38 H8          -1.9560    -0.8920    -5.1500 ha         1 ESH       0.121500
     39 H9          -3.0550     0.1520    -7.0730 ha         1 ESH       0.120000
     40 H10         -3.3230    -0.7060    -1.6530 h1         1 ESH       0.041700
     41 H121        -1.5090     0.9650    -2.2030 h1         1 ESH       0.059700
     42 H122         0.1060     0.2460    -2.2360 h1         1 ESH       0.059700
     43 H132        -1.8370     0.2630     0.0730 hc         1 ESH       0.048700
     44 H131        -0.0910     0.0530     0.0980 hc         1 ESH       0.048700
     45 H141        -0.5110    -2.2860     0.3680 hc         1 ESH       0.049200
     46 H142        -2.2170    -2.0610     0.0190 hc         1 ESH       0.049200
     47 H15          0.1320    -2.4610    -1.9770 h1         1 ESH       0.075700
     48 H16         -1.9290    -4.2460    -1.4590 hc         1 ESH       0.073700
     49 H17         -0.9070    -3.1220    -4.1570 h1         1 ESH       0.061700
     50 H22         -3.9950    -2.9110    -1.6330 hc         1 ESH       0.085700
     51 H231        -3.9560    -5.2100    -5.6230 h1         1 ESH       0.062700
     52 H232        -2.2340    -5.5100    -5.7700 h1         1 ESH       0.062700
     53 H29         -5.0370    -3.6880    -7.1260 ha         1 ESH       0.122500
     54 H28         -4.8910    -2.1240    -9.0530 ha         1 ESH       0.132000
     55 H26         -0.5980    -2.0010    -8.6420 ha         1 ESH       0.132000
     56 H25         -0.7310    -3.5790    -6.7220 ha         1 ESH       0.122500
     57 H18         -0.3000    -5.3690    -4.7440 hc         1 ESH       0.048700
     58 H323         0.7430    -4.7990    -1.9380 hc         1 ESH       0.036700
     59 H322         1.5150    -5.7910    -3.1900 hc         1 ESH       0.036700
     60 H321         1.3320    -4.0450    -3.4390 hc         1 ESH       0.036700
     61 H333        -1.3430    -6.4020    -2.0530 hc         1 ESH       0.036700
     62 H332        -0.5260    -7.3350    -3.3170 hc         1 ESH       0.036700
     63 H331        -2.1390    -6.6720    -3.6170 hc         1 ESH       0.036700
@<TRIPOS>BOND
     1     1     2 2   
     2     1    33 1   
     3     2     3 1   
     4     2     4 1   
     5     3    34 1   
     6     3    35 1   
     7     4     5 ar  
     8     4     9 ar  
     9     5     6 ar  
    10     5    36 1   
    11     6     7 ar  
    12     6    37 1   
    13     7     8 ar  
    14     7    10 1   
    15     8     9 ar  
    16     8    38 1   
    17     9    39 1   
    18    10    11 1   
    19    10    21 1   
    20    10    40 1   
    21    11    12 1   
    22    11    15 1   
    23    12    13 1   
    24    12    41 1   
    25    12    42 1   
    26    13    14 1   
    27    13    43 1   
    28    13    44 1   
    29    14    15 1   
    30    14    45 1   
    31    14    46 1   
    32    15    16 1   
    33    15    47 1   
    34    16    17 1   
    35    16    21 1   
    36    16    48 1   
    37    17    18 1   
    38    17    29 1   
    39    17    49 1   
    40    18    19 1   
    41    18    22 1   
    42    19    20 2   
    43    19    21 1   
    44    21    50 1   
    45    22    23 1   
    46    22    51 1   
    47    22    52 1   
    48    23    24 ar  
    49    23    28 ar  
    50    24    25 ar  
    51    24    53 1   
    52    25    26 ar  
    53    25    54 1   
    54    26    27 ar  
    55    26    32 1   
    56    27    28 ar  
    57    27    55 1   
    58    28    56 1   
    59    29    30 1   
    60    29    31 1   
    61    29    57 1   
    62    30    58 1   
    63    30    59 1   
    64    30    60 1   
    65    31    61 1   
    66    31    62 1   
    67    31    63 1   
@<TRIPOS>SUBSTRUCTURE
     1 ESH         1 TEMP              0 ****  ****    0 ROOT
