@<TRIPOS>MOLECULE
ESH
   63    67     1     0     0
SMALL
abcg2


@<TRIPOS>ATOM
      1 N1          -5.3940     1.1390    -8.3650 n2         1 ESH      -0.847100
      2 C3          -5.6330     1.3560    -7.1270 ce         1 ESH       0.660800
      3 N2          -6.5850     2.2650    -6.7690 nv         1 ESH      -1.032200
      4 C4          -4.9740     0.6540    -5.9910 ca         1 ESH      -0.189900
      5 C9          -5.6380     0.4500    -4.7820 ca         1 ESH      -0.091500
      6 C8          -5.0010    -0.1830    -3.7270 ca         1 ESH      -0.088000
      7 C7          -3.6890    -0.6280    -3.8450 ca         1 ESH      -0.070300
      8 C6          -3.0320    -0.4390    -5.0560 ca         1 ESH      -0.088000
      9 C5          -3.6650     0.1930    -6.1130 ca         1 ESH      -0.091500
     10 C10         -3.0090    -1.2840    -2.6690 c5         1 ESH       0.232800
     11 N11         -1.5650    -1.0820    -2.7050 n3         1 ESH      -0.697600
     12 C12         -1.1210     0.1280    -2.0310 c5         1 ESH       0.148800
     13 C13         -0.9960    -0.2260    -0.5290 c5         1 ESH      -0.111400
     14 C14         -0.9820    -1.7660    -0.4920 c5         1 ESH      -0.105400
     15 C15         -0.9460    -2.1770    -1.9760 c5         1 ESH       0.159500
     16 C16         -1.7790    -3.3850    -2.3520 c5         1 ESH      -0.070700
     17 C17         -1.3940    -4.0080    -3.7090 c5         1 ESH       0.126700
     18 N19         -2.6770    -4.1730    -4.3770 n          1 ESH      -0.407800
     19 C20         -3.7010    -3.5120    -3.8010 c          1 ESH       0.577000
     20 O21         -4.8470    -3.4920    -4.2130 o          1 ESH      -0.544000
     21 C22         -3.1910    -2.8280    -2.5560 c5         1 ESH      -0.156700
     22 C23         -2.8320    -4.7970    -5.6740 c3         1 ESH       0.156300
     23 C24         -2.7560    -3.8010    -6.8020 ca         1 ESH      -0.112300
     24 C32         -3.9110    -3.3460    -7.4260 ca         1 ESH      -0.081000
     25 C31         -3.8510    -2.4160    -8.4530 ca         1 ESH      -0.110000
     26 C30         -2.6170    -1.9260    -8.8430 ca         1 ESH       0.118000
     27 C26         -1.4470    -2.3600    -8.2400 ca         1 ESH      -0.110000
     28 C25         -1.5280    -3.3030    -7.2270 ca         1 ESH      -0.081000
     29 C18         -0.5970    -5.3140    -3.6000 c3         1 ESH      -0.071700
     30 C41          0.7180    -5.0710    -2.8640 c3         1 ESH      -0.088100
     31 C42         -1.3830    -6.4520    -2.9600 c3         1 ESH      -0.088100
     32 CL30        -2.5340    -0.7310   -10.1010 cl         1 ESH      -0.203000
     33 H20         -4.7380     0.3770    -8.4790 hn         1 ESH       0.391400
     34 H12         -6.9340     2.8500    -7.5120 hn         1 ESH       0.465000
     35 H11         -6.4870     2.7400    -5.8880 hn         1 ESH       0.465000
     36 H5          -6.6610     0.7810    -4.6540 ha         1 ESH       0.120000
     37 H6          -5.5330    -0.3190    -2.7930 ha         1 ESH       0.121500
     38 H8          -2.0080    -0.7670    -5.1660 ha         1 ESH       0.121500
     39 H9          -3.1090     0.3570    -7.0270 ha         1 ESH       0.120000
     40 H10         -3.4560    -0.8520    -1.7610 h1         1 ESH       0.041700
     41 H121        -1.8070     0.9530    -2.2240 h1         1 ESH       0.059700
     42 H122        -0.1470     0.4200    -2.4320 h1         1 ESH       0.059700
     43 H132        -1.8350     0.1710     0.0420 hc         1 ESH       0.048700
     44 H131        -0.0900     0.2060    -0.1030 hc         1 ESH       0.048700
     45 H141        -0.1290    -2.1680     0.0560 hc         1 ESH       0.049200
     46 H142        -1.8810    -2.1510    -0.0040 hc         1 ESH       0.049200
     47 H15          0.0960    -2.2830    -2.2960 h1         1 ESH       0.075700
     48 H16         -1.7640    -4.1470    -1.5710 hc         1 ESH       0.073700
     49 H17         -0.7800    -3.2940    -4.2760 h1         1 ESH       0.061700
     50 H22         -3.8680    -3.0490    -1.7300 hc         1 ESH       0.085700
     51 H231        -3.7880    -5.3210    -5.6970 h1         1 ESH       0.062700
     52 H232        -2.0590    -5.5580    -5.7900 h1         1 ESH       0.062700
     53 H29         -4.8760    -3.7150    -7.1050 ha         1 ESH       0.122500
     54 H28         -4.7590    -2.0810    -8.9380 ha         1 ESH       0.132000
     55 H26         -0.4870    -1.9780    -8.5590 ha         1 ESH       0.132000
     56 H25         -0.6100    -3.6590    -6.7740 ha         1 ESH       0.122500
     57 H18         -0.3300    -5.6200    -4.6170 hc         1 ESH       0.048700
     58 H323         0.5590    -4.8110    -1.8150 hc         1 ESH       0.036700
     59 H322         1.3330    -5.9710    -2.8860 hc         1 ESH       0.036700
     60 H321         1.2960    -4.2680    -3.3240 hc         1 ESH       0.036700
     61 H333        -1.6740    -6.2210    -1.9340 hc         1 ESH       0.036700
     62 H332        -0.7720    -7.3560    -2.9240 hc         1 ESH       0.036700
     63 H331        -2.2910    -6.6950    -3.5120 hc         1 ESH       0.036700
@<TRIPOS>BOND
     1     1     2 2   
     2     1    33 1   
     3     2     3 1   
     4     2     4 1   
     5     3    34 1   
     6     3    35 1   
     7     4     5 ar  
     8     4     9 ar  
     9     5     6 ar  
    10     5    36 1   
    11     6     7 ar  
    12     6    37 1   
    13     7     8 ar  
    14     7    10 1   
    15     8     9 ar  
    16     8    38 1   
    17     9    39 1   
    18    10    11 1   
    19    10    21 1   
    20    10    40 1   
    21    11    12 1   
    22    11    15 1   
    23    12    13 1   
    24    12    41 1   
    25    12    42 1   
    26    13    14 1   
    27    13    43 1   
    28    13    44 1   
    29    14    15 1   
    30    14    45 1   
    31    14    46 1   
    32    15    16 1   
    33    15    47 1   
    34    16    17 1   
    35    16    21 1   
    36    16    48 1   
    37    17    18 1   
    38    17    29 1   
    39    17    49 1   
    40    18    19 1   
    41    18    22 1   
    42    19    20 2   
    43    19    21 1   
    44    21    50 1   
    45    22    23 1   
    46    22    51 1   
    47    22    52 1   
    48    23    24 ar  
    49    23    28 ar  
    50    24    25 ar  
    51    24    53 1   
    52    25    26 ar  
    53    25    54 1   
    54    26    27 ar  
    55    26    32 1   
    56    27    28 ar  
    57    27    55 1   
    58    28    56 1   
    59    29    30 1   
    60    29    31 1   
    61    29    57 1   
    62    30    58 1   
    63    30    59 1   
    64    30    60 1   
    65    31    61 1   
    66    31    62 1   
    67    31    63 1   
@<TRIPOS>SUBSTRUCTURE
     1 ESH         1 TEMP              0 ****  ****    0 ROOT
