@<TRIPOS>MOLECULE
ESI
   21    22     1     0     0
SMALL
bcc


@<TRIPOS>ATOM
      1 C0           3.4380    -1.4030     0.0280 ce         1 ESI       0.556100
      2 C1           2.4060    -0.3740     0.0560 cc         1 ESI      -0.299000
      3 N1           3.1880    -2.5610     0.5840 nv         1 ESI      -0.470100
      4 N2           4.5850    -1.1420    -0.5520 nv         1 ESI      -0.454200
      5 S2           2.8350     1.3040     0.1320 ss         1 ESI       0.028500
      6 C3           1.1690     1.7540     0.0800 ca         1 ESI      -0.002100
      7 C4           0.3250     0.6280     0.0100 ca         1 ESI      -0.087800
      8 C5           1.0670    -0.5890    -0.0010 cd         1 ESI       0.007800
      9 C6           0.6770     3.0550     0.1110 ca         1 ESI      -0.096000
     10 C7          -0.6880     3.2270     0.0610 ca         1 ESI      -0.069000
     11 C8          -1.5600     2.1310    -0.0140 ca         1 ESI      -0.084000
     12 C9          -1.0610     0.8490    -0.0410 ca         1 ESI       0.102900
     13 I9          -2.3850    -0.7740    -0.1520 i          1 ESI      -0.117900
     14 HH11         3.8280    -3.3380     0.5140 hn         1 ESI       0.329450
     15 HH12         2.3650    -2.6970     1.1490 hn         1 ESI       0.329450
     16 HH21         4.7140    -0.3180    -1.1180 hn         1 ESI       0.329450
     17 HH22         5.3510    -1.7990    -0.5360 hn         1 ESI       0.329450
     18 H5           0.6220    -1.5710    -0.0800 ha         1 ESI       0.173000
     19 H6           1.3450     3.9040     0.1670 ha         1 ESI       0.163000
     20 H7          -1.1050     4.2250     0.0800 ha         1 ESI       0.162000
     21 H8          -2.6260     2.3100    -0.0530 ha         1 ESI       0.170000
@<TRIPOS>BOND
     1     1     2 1   
     2     1     3 2   
     3     1     4 1   
     4     2     5 1   
     5     2     8 2   
     6     3    14 1   
     7     3    15 1   
     8     4    16 1   
     9     4    17 1   
    10     5     6 1   
    11     6     7 ar  
    12     6     9 ar  
    13     7     8 1   
    14     7    12 ar  
    15     8    18 1   
    16     9    10 ar  
    17     9    19 1   
    18    10    11 ar  
    19    10    20 1   
    20    11    12 ar  
    21    11    21 1   
    22    12    13 1   
@<TRIPOS>SUBSTRUCTURE
     1 ESI         1 TEMP              0 ****  ****    0 ROOT
