@<TRIPOS>MOLECULE
ESI
   21    22     1     0     0
SMALL
No Charge or Current Charge


@<TRIPOS>ATOM
      1 C0           3.4610    -1.4300    -0.0020 ce         1 ESI       0.556100
      2 C1           2.4340    -0.3960    -0.0000 cc         1 ESI      -0.299000
      3 N1           3.1330    -2.7380     0.2260 nv         1 ESI      -0.570700
      4 N2           4.7720    -1.1180    -0.2280 nv         1 ESI      -0.554800
      5 S2           2.8800     1.3380    -0.0780 ss         1 ESI       0.155400
      6 C3           1.1520     1.7800    -0.0240 ca         1 ESI      -0.129000
      7 C4           0.3030     0.6950     0.0450 ca         1 ESI      -0.087800
      8 C5           1.0540    -0.5400     0.0570 cd         1 ESI      -0.042200
      9 C6           0.6480     3.0910    -0.0490 ca         1 ESI      -0.078000
     10 C7          -0.7480     3.2840    -0.0010 ca         1 ESI      -0.051000
     11 C8          -1.6160     2.1710     0.0710 ca         1 ESI      -0.066000
     12 C9          -1.0930     0.8650     0.0940 ca         1 ESI       0.240000
     13 I9          -2.4360    -0.8360     0.2040 i          1 ESI      -0.255000
     14 HH11         3.8770    -3.3900     0.4300 hn         1 ESI       0.379750
     15 HH12         2.2210    -2.9400     0.6110 hn         1 ESI       0.379750
     16 HH21         4.9890    -0.1950    -0.5740 hn         1 ESI       0.379750
     17 HH22         5.4200    -1.8640    -0.4410 hn         1 ESI       0.379750
     18 H5           0.5650    -1.5110     0.0980 ha         1 ESI       0.223000
     19 H6           1.3220     3.9440    -0.1040 ha         1 ESI       0.145000
     20 H7          -1.1570     4.2910    -0.0180 ha         1 ESI       0.144000
     21 H8          -2.6910     2.3200     0.1080 ha         1 ESI       0.152000
@<TRIPOS>BOND
     1     1     2 1   
     2     1     3 2   
     3     1     4 1   
     4     2     5 1   
     5     2     8 2   
     6     3    14 1   
     7     3    15 1   
     8     4    16 1   
     9     4    17 1   
    10     5     6 1   
    11     6     7 ar  
    12     6     9 ar  
    13     7     8 1   
    14     7    12 ar  
    15     8    18 1   
    16     9    10 ar  
    17     9    19 1   
    18    10    11 ar  
    19    10    20 1   
    20    11    12 ar  
    21    11    21 1   
    22    12    13 1   
@<TRIPOS>SUBSTRUCTURE
     1 ESI         1 TEMP              0 ****  ****    0 ROOT
