@<TRIPOS>MOLECULE
ESJ
   25    27     1     0     0
SMALL
abcg2


@<TRIPOS>ATOM
      1 O            3.4550     1.9070     1.0680 o          1 ESJ      -0.692000
      2 C            4.1570     1.0700     0.4850 c          1 ESJ       0.737000
      3 OXT          5.3460     0.7770     0.7050 o          1 ESJ      -0.692000
      4 CA           3.5090     0.2630    -0.6870 c5         1 ESJ      -0.064500
      5 N            2.1190     0.6230    -0.8640 n2         1 ESJ      -0.448900
      6 CB           3.5970    -1.2480    -0.4330 c5         1 ESJ       0.085600
      7 SAJ          2.0720    -1.6140     0.4900 ss         1 ESJ      -0.454200
      8 CAM          1.3480    -0.1850    -0.2790 ce         1 ESJ       0.388900
      9 CAO         -0.1020    -0.0160    -0.2120 cc         1 ESJ       0.399900
     10 NAI         -0.7180     1.0890    -0.4430 nd         1 ESJ      -0.489100
     11 CAP         -2.0720     0.9310    -0.3230 ca         1 ESJ       0.067400
     12 CAE         -3.0320     1.9310    -0.5080 ca         1 ESJ      -0.019000
     13 CAD         -4.3630     1.6260    -0.3530 ca         1 ESJ      -0.154000
     14 CAN         -4.7710     0.3220    -0.0100 ca         1 ESJ       0.134100
     15 OAC         -6.0930     0.1190     0.1220 oh         1 ESJ      -0.542100
     16 CAF         -3.8390    -0.6870     0.1790 ca         1 ESJ      -0.180000
     17 CAQ         -2.4970    -0.3630     0.0190 ca         1 ESJ      -0.165000
     18 SAK         -1.1170    -1.3880     0.1770 ss         1 ESJ       0.040800
     19 HA           4.0610     0.5060    -1.5990 h1         1 ESJ       0.079700
     20 HB1C         3.5950    -1.8300    -1.3550 h1         1 ESJ       0.068700
     21 HB2C         4.4690    -1.5200     0.1550 h1         1 ESJ       0.068700
     22 HAE         -2.7230     2.9340    -0.7710 ha         1 ESJ       0.134000
     23 HAD         -5.1170     2.3900    -0.4940 ha         1 ESJ       0.122000
     24 HAC         -6.2770    -0.7950     0.3660 ho         1 ESJ       0.459000
     25 HAF         -4.1470    -1.6910     0.4460 ha         1 ESJ       0.115000
@<TRIPOS>BOND
     1     1     2 1   
     2     2     3 1   
     3     2     4 1   
     4     4     5 1   
     5     4     6 1   
     6     4    19 1   
     7     5     8 2   
     8     6     7 1   
     9     6    20 1   
    10     6    21 1   
    11     7     8 1   
    12     8     9 1   
    13     9    10 2   
    14     9    18 1   
    15    10    11 1   
    16    11    12 ar  
    17    11    17 ar  
    18    12    13 ar  
    19    12    22 1   
    20    13    14 ar  
    21    13    23 1   
    22    14    15 1   
    23    14    16 ar  
    24    15    24 1   
    25    16    17 ar  
    26    16    25 1   
    27    17    18 1   
@<TRIPOS>SUBSTRUCTURE
     1 ESJ         1 TEMP              0 ****  ****    0 ROOT
