@<TRIPOS>MOLECULE
ESJ
   25    27     1     0     0
SMALL
No Charge or Current Charge


@<TRIPOS>ATOM
      1 O            3.7780     1.3720     1.6160 o          1 ESJ      -0.692000
      2 C            4.3530     0.7810     0.7100 c          1 ESJ       0.737000
      3 OXT          5.5550     0.5590     0.7530 o          1 ESJ      -0.692000
      4 CA           3.5710     0.3760    -0.5900 c5         1 ESJ      -0.064500
      5 N            2.1390     0.8440    -0.6440 n2         1 ESJ      -0.448900
      6 CB           3.5130    -1.1690    -0.6870 c5         1 ESJ       0.085600
      7 SAJ          2.1180    -1.5960     0.4350 ss         1 ESJ      -0.454200
      8 CAM          1.3660    -0.0490    -0.0910 ce         1 ESJ       0.388900
      9 CAO         -0.1120     0.0750    -0.0980 cc         1 ESJ       0.399900
     10 NAI         -0.7630     1.1530    -0.5870 nd         1 ESJ      -0.489100
     11 CAP         -2.1250     0.9360    -0.4290 ca         1 ESJ       0.067400
     12 CAE         -3.1150     1.8520    -0.8290 ca         1 ESJ      -0.019000
     13 CAD         -4.4740     1.5350    -0.6230 ca         1 ESJ      -0.154000
     14 CAN         -4.8330     0.3120    -0.0230 ca         1 ESJ       0.134100
     15 OAC         -6.1480     0.0160     0.1710 oh         1 ESJ      -0.542100
     16 CAF         -3.8370    -0.5980     0.3740 ca         1 ESJ      -0.180000
     17 CAQ         -2.4920    -0.2580     0.1570 ca         1 ESJ      -0.165000
     18 SAK         -1.1040    -1.2450     0.5760 ss         1 ESJ       0.040800
     19 HA           4.1340     0.7910    -1.4360 h1         1 ESJ       0.079700
     20 HB1C         3.2700    -1.4910    -1.7080 h1         1 ESJ       0.068700
     21 HB2C         4.4450    -1.6630    -0.3790 h1         1 ESJ       0.068700
     22 HAE         -2.8330     2.7950    -1.2910 ha         1 ESJ       0.134000
     23 HAD         -5.2450     2.2370    -0.9290 ha         1 ESJ       0.122000
     24 HAC         -6.2050    -0.8670     0.5960 ho         1 ESJ       0.459000
     25 HAF         -4.0960    -1.5470     0.8380 ha         1 ESJ       0.115000
@<TRIPOS>BOND
     1     1     2 1   
     2     2     3 1   
     3     2     4 1   
     4     4     5 1   
     5     4     6 1   
     6     4    19 1   
     7     5     8 2   
     8     6     7 1   
     9     6    20 1   
    10     6    21 1   
    11     7     8 1   
    12     8     9 1   
    13     9    10 2   
    14     9    18 1   
    15    10    11 1   
    16    11    12 ar  
    17    11    17 ar  
    18    12    13 ar  
    19    12    22 1   
    20    13    14 ar  
    21    13    23 1   
    22    14    15 1   
    23    14    16 ar  
    24    15    24 1   
    25    16    17 ar  
    26    16    25 1   
    27    17    18 1   
@<TRIPOS>SUBSTRUCTURE
     1 ESJ         1 TEMP              0 ****  ****    0 ROOT
