@<TRIPOS>MOLECULE
ESK
   65    69     1     0     0
SMALL
bcc


@<TRIPOS>ATOM
      1 C2          -5.9970     2.8160    -0.2010 c3         1 ESK       0.122400
      2 C3          -6.2470     1.3370    -0.4790 c3         1 ESK       0.166000
      3 N4          -5.4830     0.4810     0.4120 ns         1 ESK      -0.563900
      4 C5          -4.2050     0.1450     0.1940 c          1 ESK       0.640100
      5 C7          -3.5970    -0.7340     1.2870 c3         1 ESK       0.027000
      6 C10         -0.6150    -2.3080    -0.1620 ca         1 ESK      -0.062300
      7 C11          0.2000    -3.1550    -0.8910 ca         1 ESK      -0.127000
      8 C12          1.5670    -2.9100    -0.8920 ca         1 ESK      -0.071000
      9 C13          2.1180    -1.8340    -0.1860 cp         1 ESK      -0.171500
     10 C14          1.2840    -0.9710     0.5190 ca         1 ESK      -0.011000
     11 C15         -0.0720    -1.2360     0.5260 ca         1 ESK      -0.168600
     12 C16         -1.1630    -0.4970     1.1940 c          1 ESK       0.733100
     13 O17         -1.0790     0.5210     1.8580 o          1 ESK      -0.610500
     14 C22          6.8650     1.8580    -0.4530 c6         1 ESK       0.246500
     15 C23          6.9360     3.2070    -1.1590 c6         1 ESK      -0.132400
     16 C24          8.3170     3.8190    -0.9780 c6         1 ESK       0.133900
     17 C26          8.6780     2.7000     1.0450 c6         1 ESK       0.133900
     18 C27          7.3170     2.0240     0.9980 c6         1 ESK      -0.132400
     19 C35        -10.4390     0.3390    -0.4440 ca         1 ESK      -0.122000
     20 C36         -9.7460     0.4490    -1.6410 ca         1 ESK      -0.131500
     21 C37         -8.3930     0.7630    -1.6330 ca         1 ESK      -0.112500
     22 O1          -6.3730     3.1170     1.1170 oh         1 ESK      -0.601800
     23 O6          -3.5590     0.4950    -0.7800 o          1 ESK      -0.599100
     24 N8          -2.2950    -1.1960     0.9320 n          1 ESK      -0.466800
     25 C9          -2.0950    -2.3200     0.0420 c5         1 ESK       0.142300
     26 C18          3.5710    -1.5600    -0.2030 cp         1 ESK       0.572800
     27 N19          3.9210    -0.2960    -0.3780 nb         1 ESK      -0.777000
     28 C20          5.2210     0.0180    -0.3820 ca         1 ESK       0.920900
     29 N21          5.5300     1.3120    -0.5670 nu         1 ESK      -0.855900
     30 O25          8.6690     3.9470     0.3820 os         1 ESK      -0.402600
     31 N28          6.2210    -0.8600    -0.2360 nb         1 ESK      -0.766000
     32 C29          5.8730    -2.1160    -0.0460 ca         1 ESK       0.492200
     33 C30          4.5530    -2.5340    -0.0100 ca         1 ESK      -0.287200
     34 CL1          4.2070    -4.1880     0.3470 cl         1 ESK      -0.085400
     35 C32         -7.7140     0.9770    -0.4370 ca         1 ESK      -0.097300
     36 C33         -8.4200     0.8700     0.7600 ca         1 ESK      -0.112500
     37 C34         -9.7700     0.5470     0.7560 ca         1 ESK      -0.131500
     38 H41         -4.9340     3.0230    -0.3780 h1         1 ESK       0.035200
     39 H40         -6.5650     3.3980    -0.9390 h1         1 ESK       0.035200
     40 H38         -5.8860     1.1550    -1.4940 h1         1 ESK       0.079700
     41 H42         -5.9200     0.1670     1.2640 hn         1 ESK       0.319500
     42 H43         -3.5410    -0.1580     2.2130 h1         1 ESK       0.075200
     43 H44         -4.2480    -1.5880     1.4890 h1         1 ESK       0.075200
     44 H47         -0.2050    -3.9880    -1.4510 ha         1 ESK       0.141000
     45 H48          2.2090    -3.5570    -1.4730 ha         1 ESK       0.143000
     46 H49          1.6910    -0.1240     1.0560 ha         1 ESK       0.165000
     47 H51          7.5510     1.1690    -0.9540 h1         1 ESK       0.078700
     48 H52          6.7270     3.0950    -2.2250 hc         1 ESK       0.059450
     49 H53          6.1780     3.8810    -0.7460 hc         1 ESK       0.059450
     50 H54          9.0590     3.2050    -1.5080 h1         1 ESK       0.047950
     51 H55          8.3500     4.8190    -1.4130 h1         1 ESK       0.047950
     52 H57          8.9790     2.8890     2.0760 h1         1 ESK       0.047950
     53 H56          9.4350     2.0370     0.5990 h1         1 ESK       0.047950
     54 H58          6.5830     2.6280     1.5400 hc         1 ESK       0.059450
     55 H59          7.3790     1.0540     1.4950 hc         1 ESK       0.059450
     56 H63        -11.4920     0.0910    -0.4440 ha         1 ESK       0.131000
     57 H64        -10.2550     0.2840    -2.5820 ha         1 ESK       0.131500
     58 H65         -7.8570     0.8410    -2.5720 ha         1 ESK       0.134000
     59 H39         -6.2230     4.0540     1.2680 ho         1 ESK       0.408000
     60 H45         -2.6360    -2.1880    -0.8990 h1         1 ESK       0.066700
     61 H46         -2.4420    -3.2520     0.4960 h1         1 ESK       0.066700
     62 H50          4.7540     1.9560    -0.5690 hn         1 ESK       0.450800
     63 H60          6.6740    -2.8340     0.0950 h4         1 ESK       0.033100
     64 H61         -7.9290     1.0380     1.7100 ha         1 ESK       0.134000
     65 H62        -10.3030     0.4620     1.6940 ha         1 ESK       0.131500
@<TRIPOS>BOND
     1     1     2 1   
     2     1    22 1   
     3     1    38 1   
     4     1    39 1   
     5     2     3 1   
     6     2    35 1   
     7     2    40 1   
     8     3     4 1   
     9     3    41 1   
    10     4     5 1   
    11     4    23 2   
    12     5    24 1   
    13     5    42 1   
    14     5    43 1   
    15     6     7 ar  
    16     6    11 ar  
    17     6    25 1   
    18     7     8 ar  
    19     7    44 1   
    20     8     9 ar  
    21     8    45 1   
    22     9    10 ar  
    23     9    26 1   
    24    10    11 ar  
    25    10    46 1   
    26    11    12 1   
    27    12    13 2   
    28    12    24 1   
    29    14    15 1   
    30    14    18 1   
    31    14    29 1   
    32    14    47 1   
    33    15    16 1   
    34    15    48 1   
    35    15    49 1   
    36    16    30 1   
    37    16    50 1   
    38    16    51 1   
    39    17    18 1   
    40    17    30 1   
    41    17    52 1   
    42    17    53 1   
    43    18    54 1   
    44    18    55 1   
    45    19    20 ar  
    46    19    37 ar  
    47    19    56 1   
    48    20    21 ar  
    49    20    57 1   
    50    21    35 ar  
    51    21    58 1   
    52    22    59 1   
    53    24    25 1   
    54    25    60 1   
    55    25    61 1   
    56    26    27 ar  
    57    26    33 ar  
    58    27    28 ar  
    59    28    29 1   
    60    28    31 ar  
    61    29    62 1   
    62    31    32 ar  
    63    32    33 ar  
    64    32    63 1   
    65    33    34 1   
    66    35    36 ar  
    67    36    37 ar  
    68    36    64 1   
    69    37    65 1   
@<TRIPOS>SUBSTRUCTURE
     1 ESK         1 TEMP              0 ****  ****    0 ROOT
