@<TRIPOS>MOLECULE
ESK
   65    69     1     0     0
SMALL
No Charge or Current Charge


@<TRIPOS>ATOM
      1 C2          -5.8460     2.7730    -0.4110 c3         1 ESK       0.145600
      2 C3          -6.3870     1.3270    -0.6350 c3         1 ESK       0.166000
      3 N4          -5.6190     0.3140     0.1000 ns         1 ESK      -0.496900
      4 C5          -4.3450    -0.0940    -0.2260 c          1 ESK       0.573100
      5 C7          -3.7350    -1.1290     0.7440 c3         1 ESK       0.027000
      6 C10         -0.4770    -2.6490    -0.3770 ca         1 ESK      -0.062300
      7 C11          0.4600    -3.5040    -0.9730 ca         1 ESK      -0.109000
      8 C12          1.8310    -3.1900    -0.8700 ca         1 ESK      -0.053000
      9 C13          2.2790    -2.0300    -0.1700 cp         1 ESK      -0.171500
     10 C14          1.3010    -1.1760     0.4090 ca         1 ESK       0.007000
     11 C15         -0.0530    -1.5160     0.2910 ca         1 ESK      -0.168600
     12 C16         -1.2360    -0.8050     0.8040 c          1 ESK       0.590600
     13 O17         -1.2490     0.2390     1.4430 o          1 ESK      -0.535000
     14 C22          6.9240     1.9490    -0.3680 c6         1 ESK       0.246500
     15 C23          6.9120     3.2550    -1.1940 c6         1 ESK      -0.132400
     16 C24          8.2220     4.0430    -0.9610 c6         1 ESK       0.157100
     17 C26          8.5060     3.0940     1.2490 c6         1 ESK       0.157100
     18 C27          7.2130     2.2580     1.1210 c6         1 ESK      -0.132400
     19 C35        -10.6450     0.9260     0.1950 ca         1 ESK      -0.104000
     20 C36        -10.1690     0.8440    -1.1240 ca         1 ESK      -0.113500
     21 C37         -8.7940     0.9750    -1.3860 ca         1 ESK      -0.094500
     22 O1          -5.7230     3.1050     0.9860 oh         1 ESK      -0.664000
     23 O6          -3.7640     0.3300    -1.2180 o          1 ESK      -0.599100
     24 N8          -2.3510    -1.5640     0.4210 n          1 ESK      -0.399800
     25 C9          -1.9950    -2.7870    -0.3640 c5         1 ESK       0.142300
     26 C18          3.7350    -1.6900    -0.0730 cp         1 ESK       0.244500
     27 N19          4.0590    -0.4010    -0.3090 nb         1 ESK      -0.251000
     28 C20          5.3530    -0.0570    -0.2360 ca         1 ESK       0.394900
     29 N21          5.6220     1.2780    -0.5040 nu         1 ESK      -0.911100
     30 O25          8.3960     4.2920     0.4500 os         1 ESK      -0.449000
     31 N28          6.3840    -0.8700     0.0610 nb         1 ESK      -0.240000
     32 C29          6.0770    -2.1560     0.3190 ca         1 ESK       0.163900
     33 C30          4.7520    -2.6240     0.2700 ca         1 ESK      -0.065000
     34 Cl1          4.4280    -4.3090     0.6910 cl         1 ESK      -0.177000
     35 C32         -7.8820     1.1930    -0.3330 ca         1 ESK      -0.097300
     36 C33         -8.3700     1.2720     0.9900 ca         1 ESK      -0.094500
     37 C34         -9.7450     1.1400     1.2510 ca         1 ESK      -0.113500
     38 H41         -4.8650     2.8570    -0.8970 h1         1 ESK       0.035200
     39 H40         -6.5170     3.4820    -0.9150 h1         1 ESK       0.035200
     40 H38         -6.2520     1.1120    -1.7040 h1         1 ESK       0.079700
     41 H42         -6.0310    -0.0770     0.9380 hn         1 ESK       0.319500
     42 H43         -3.7540    -0.6950     1.7520 h1         1 ESK       0.075200
     43 H44         -4.3950    -2.0050     0.7500 h1         1 ESK       0.075200
     44 H47          0.1360    -4.3930    -1.5100 ha         1 ESK       0.123000
     45 H48          2.5530    -3.8440    -1.3520 ha         1 ESK       0.125000
     46 H49          1.5920    -0.2740     0.9450 ha         1 ESK       0.147000
     47 H51          7.7300     1.3090    -0.7640 h1         1 ESK       0.078700
     48 H52          6.8000     3.0280    -2.2620 hc         1 ESK       0.059450
     49 H53          6.0570     3.8830    -0.9080 hc         1 ESK       0.059450
     50 H54          9.0840     3.4760    -1.3420 h1         1 ESK       0.047950
     51 H55          8.1820     5.0040    -1.4930 h1         1 ESK       0.047950
     52 H57          8.6690     3.3770     2.2990 h1         1 ESK       0.047950
     53 H56          9.3760     2.5100     0.9130 h1         1 ESK       0.047950
     54 H58          6.3750     2.8130     1.5630 hc         1 ESK       0.059450
     55 H59          7.3160     1.3280     1.6930 hc         1 ESK       0.059450
     56 H63        -11.7100     0.8240     0.3970 ha         1 ESK       0.113000
     57 H64        -10.8650     0.6780    -1.9430 ha         1 ESK       0.113500
     58 H65         -8.4400     0.9080    -2.4130 ha         1 ESK       0.116000
     59 H39         -5.3710     4.0210     1.0350 ho         1 ESK       0.447000
     60 H45         -2.4140    -2.7590    -1.3780 h1         1 ESK       0.066700
     61 H46         -2.3150    -3.7080     0.1410 h1         1 ESK       0.066700
     62 H50          4.8030     1.8470    -0.7210 hn         1 ESK       0.506000
     63 H60          6.9030    -2.8150     0.5800 h4         1 ESK       0.033100
     64 H61         -7.6860     1.4370     1.8190 ha         1 ESK       0.116000
     65 H62        -10.1120     1.2040     2.2730 ha         1 ESK       0.113500
@<TRIPOS>BOND
     1     1     2 1   
     2     1    22 1   
     3     1    38 1   
     4     1    39 1   
     5     2     3 1   
     6     2    35 1   
     7     2    40 1   
     8     3     4 1   
     9     3    41 1   
    10     4     5 1   
    11     4    23 2   
    12     5    24 1   
    13     5    42 1   
    14     5    43 1   
    15     6     7 ar  
    16     6    11 ar  
    17     6    25 1   
    18     7     8 ar  
    19     7    44 1   
    20     8     9 ar  
    21     8    45 1   
    22     9    10 ar  
    23     9    26 1   
    24    10    11 ar  
    25    10    46 1   
    26    11    12 1   
    27    12    13 2   
    28    12    24 1   
    29    14    15 1   
    30    14    18 1   
    31    14    29 1   
    32    14    47 1   
    33    15    16 1   
    34    15    48 1   
    35    15    49 1   
    36    16    30 1   
    37    16    50 1   
    38    16    51 1   
    39    17    18 1   
    40    17    30 1   
    41    17    52 1   
    42    17    53 1   
    43    18    54 1   
    44    18    55 1   
    45    19    20 ar  
    46    19    37 ar  
    47    19    56 1   
    48    20    21 ar  
    49    20    57 1   
    50    21    35 ar  
    51    21    58 1   
    52    22    59 1   
    53    24    25 1   
    54    25    60 1   
    55    25    61 1   
    56    26    27 ar  
    57    26    33 ar  
    58    27    28 ar  
    59    28    29 1   
    60    28    31 ar  
    61    29    62 1   
    62    31    32 ar  
    63    32    33 ar  
    64    32    63 1   
    65    33    34 1   
    66    35    36 ar  
    67    36    37 ar  
    68    36    64 1   
    69    37    65 1   
@<TRIPOS>SUBSTRUCTURE
     1 ESK         1 TEMP              0 ****  ****    0 ROOT
