@<TRIPOS>MOLECULE
ESL
   45    48     1     0     0
SMALL
No Charge or Current Charge


@<TRIPOS>ATOM
      1 C2           0.6240     0.4960     0.5920 c6         1 ESL      -0.004400
      2 C3           0.0130     1.9000     0.2460 c6         1 ESL      -0.070400
      3 C4          -1.5210     1.9760     0.5190 c6         1 ESL      -0.058400
      4 C5          -2.3000     0.8330    -0.1940 c5         1 ESL      -0.040000
      5 C6          -2.2900     1.1160    -1.7410 c3         1 ESL      -0.077100
      6 C7          -3.7330     0.5670     0.3760 c5         1 ESL       0.178300
      7 O1          -4.6990     1.5670     0.0360 oh         1 ESL      -0.652000
      8 C8          -4.0750    -0.8440    -0.2370 c5         1 ESL       0.123300
      9 O2          -5.0320    -1.5620     0.5490 oh         1 ESL      -0.663000
     10 C9          -2.6870    -1.5730    -0.3310 c5         1 ESL      -0.098400
     11 C10         -1.6820    -0.5300     0.2470 c5         1 ESL      -0.062700
     12 C12         -0.1750    -0.6510    -0.1130 c6         1 ESL      -0.046700
     13 C14          0.4240    -2.0160     0.2900 c6         1 ESL      -0.069400
     14 C15          1.8680    -2.1370    -0.2360 c6         1 ESL      -0.034100
     15 C16          2.7200    -0.8780    -0.0300 ca         1 ESL      -0.031300
     16 C17          4.1100    -0.9830    -0.2390 ca         1 ESL      -0.208000
     17 C18          4.9420     0.1300    -0.0690 ca         1 ESL       0.138100
     18 O3           6.2840     0.0190    -0.2700 oh         1 ESL      -0.535100
     19 C19          4.3940     1.3580     0.3160 ca         1 ESL      -0.146000
     20 C20          3.0100     1.4790     0.5230 ca         1 ESL      -0.074000
     21 C21          2.1490     0.3710     0.3370 ca         1 ESL      -0.100300
     22 H2           0.4920     0.3640     1.6750 hc         1 ESL       0.052700
     23 H31          0.2350     2.1570    -0.7980 hc         1 ESL       0.043200
     24 H32          0.4850     2.6800     0.8550 hc         1 ESL       0.043200
     25 H41         -1.9120     2.9550     0.2090 hc         1 ESL       0.047200
     26 H42         -1.6910     1.9140     1.6030 hc         1 ESL       0.047200
     27 H61         -1.2760     1.1680    -2.1530 hc         1 ESL       0.037700
     28 H62         -2.8180     0.3540    -2.3240 hc         1 ESL       0.037700
     29 H63         -2.7720     2.0740    -1.9650 hc         1 ESL       0.037700
     30 H7          -3.6840     0.4840     1.4720 h1         1 ESL       0.045700
     31 HO1         -5.5710     1.1960     0.2950 ho         1 ESL       0.452000
     32 H8          -4.4790    -0.7160    -1.2510 h1         1 ESL       0.042700
     33 HO2         -5.1710    -2.4300     0.1100 ho         1 ESL       0.445000
     34 H91         -2.4490    -1.8310    -1.3700 hc         1 ESL       0.049200
     35 H92         -2.6630    -2.5100     0.2390 hc         1 ESL       0.049200
     36 H10         -1.6960    -0.6140     1.3430 hc         1 ESL       0.050700
     37 H12         -0.0640    -0.5470    -1.2010 hc         1 ESL       0.057700
     38 H141         0.4140    -2.1230     1.3840 hc         1 ESL       0.043700
     39 H142        -0.1760    -2.8430    -0.1120 hc         1 ESL       0.043700
     40 H151         2.3540    -3.0000     0.2400 hc         1 ESL       0.048700
     41 H152         1.8380    -2.3630    -1.3110 hc         1 ESL       0.048700
     42 H17          4.5360    -1.9390    -0.5330 ha         1 ESL       0.108000
     43 HO3          6.4800    -0.9070    -0.5300 ho         1 ESL       0.462000
     44 H19          5.0410     2.2190     0.4580 ha         1 ESL       0.128000
     45 H20          2.6260     2.4440     0.8380 ha         1 ESL       0.113000
@<TRIPOS>BOND
     1     1     2 1   
     2     1    12 1   
     3     1    21 1   
     4     1    22 1   
     5     2     3 1   
     6     2    23 1   
     7     2    24 1   
     8     3     4 1   
     9     3    25 1   
    10     3    26 1   
    11     4     5 1   
    12     4     6 1   
    13     4    11 1   
    14     5    27 1   
    15     5    28 1   
    16     5    29 1   
    17     6     7 1   
    18     6     8 1   
    19     6    30 1   
    20     7    31 1   
    21     8     9 1   
    22     8    10 1   
    23     8    32 1   
    24     9    33 1   
    25    10    11 1   
    26    10    34 1   
    27    10    35 1   
    28    11    12 1   
    29    11    36 1   
    30    12    13 1   
    31    12    37 1   
    32    13    14 1   
    33    13    38 1   
    34    13    39 1   
    35    14    15 1   
    36    14    40 1   
    37    14    41 1   
    38    15    16 ar  
    39    15    21 ar  
    40    16    17 ar  
    41    16    42 1   
    42    17    18 1   
    43    17    19 ar  
    44    18    43 1   
    45    19    20 ar  
    46    19    44 1   
    47    20    21 ar  
    48    20    45 1   
@<TRIPOS>SUBSTRUCTURE
     1 ESL         1 TEMP              0 ****  ****    0 ROOT
