@<TRIPOS>MOLECULE
ESL
   45    48     1     0     0
SMALL
abcg2


@<TRIPOS>ATOM
      1 C2           0.5900     0.4500     0.6060 c6         1 ESL      -0.004400
      2 C3           0.0050     1.8360     0.3010 c6         1 ESL      -0.070400
      3 C4          -1.5030     1.9160     0.5600 c6         1 ESL      -0.058400
      4 C5          -2.2510     0.8060    -0.1720 c5         1 ESL      -0.040000
      5 C6          -2.1900     1.0410    -1.6860 c3         1 ESL      -0.077100
      6 C7          -3.6960     0.5750     0.2690 c5         1 ESL       0.178300
      7 O1          -4.5690     1.5710    -0.1970 oh         1 ESL      -0.652000
      8 C8          -4.0130    -0.8450    -0.2320 c5         1 ESL       0.123300
      9 O2          -4.9790    -1.4220     0.6230 oh         1 ESL      -0.663000
     10 C9          -2.6510    -1.5780    -0.2650 c5         1 ESL      -0.098400
     11 C10         -1.6500    -0.5430     0.2530 c5         1 ESL      -0.062700
     12 C12         -0.1840    -0.6680    -0.1120 c6         1 ESL      -0.046700
     13 C14          0.4260    -2.0110     0.2570 c6         1 ESL      -0.069400
     14 C15          1.8410    -2.1080    -0.2910 c6         1 ESL      -0.034100
     15 C16          2.6620    -0.8650    -0.0590 ca         1 ESL      -0.031300
     16 C17          4.0370    -0.9430    -0.2720 ca         1 ESL      -0.208000
     17 C18          4.8610     0.1580    -0.0940 ca         1 ESL       0.138100
     18 O3           6.1960     0.1140    -0.2960 oh         1 ESL      -0.535100
     19 C19          4.2970     1.3630     0.3140 ca         1 ESL      -0.146000
     20 C20          2.9310     1.4380     0.5230 ca         1 ESL      -0.074000
     21 C21          2.0810     0.3450     0.3390 ca         1 ESL      -0.100300
     22 H2           0.4400     0.2740     1.6830 hc         1 ESL       0.052700
     23 H31          0.2310     2.1070    -0.7340 hc         1 ESL       0.043200
     24 H32          0.4930     2.5930     0.9180 hc         1 ESL       0.043200
     25 H41         -1.8720     2.9020     0.2630 hc         1 ESL       0.047200
     26 H42         -1.6870     1.8230     1.6360 hc         1 ESL       0.047200
     27 H61         -1.1640     1.1190    -2.0440 hc         1 ESL       0.037700
     28 H62         -2.6650     0.2450    -2.2610 hc         1 ESL       0.037700
     29 H63         -2.6900     1.9740    -1.9460 hc         1 ESL       0.037700
     30 H7          -3.7070     0.5420     1.3710 h1         1 ESL       0.045700
     31 HO1         -5.4490     1.3850     0.1440 ho         1 ESL       0.452000
     32 H8          -4.4160    -0.7710    -1.2510 h1         1 ESL       0.042700
     33 HO2         -5.2660    -2.2530     0.2350 ho         1 ESL       0.445000
     34 H91         -2.4000    -1.8980    -1.2800 hc         1 ESL       0.049200
     35 H92         -2.6720    -2.4760     0.3550 hc         1 ESL       0.049200
     36 H10         -1.7050    -0.5700     1.3520 hc         1 ESL       0.050700
     37 H12         -0.0760    -0.5380    -1.1970 hc         1 ESL       0.057700
     38 H141         0.4290    -2.1200     1.3470 hc         1 ESL       0.043700
     39 H142        -0.1700    -2.8360    -0.1410 hc         1 ESL       0.043700
     40 H151         2.3580    -2.9710     0.1350 hc         1 ESL       0.048700
     41 H152         1.7940    -2.2950    -1.3700 hc         1 ESL       0.048700
     42 H17          4.4660    -1.8910    -0.5850 ha         1 ESL       0.108000
     43 HO3          6.4620    -0.7690    -0.5740 ho         1 ESL       0.462000
     44 H19          4.9240     2.2330     0.4690 ha         1 ESL       0.128000
     45 H20          2.5260     2.3870     0.8490 ha         1 ESL       0.113000
@<TRIPOS>BOND
     1     1     2 1   
     2     1    12 1   
     3     1    21 1   
     4     1    22 1   
     5     2     3 1   
     6     2    23 1   
     7     2    24 1   
     8     3     4 1   
     9     3    25 1   
    10     3    26 1   
    11     4     5 1   
    12     4     6 1   
    13     4    11 1   
    14     5    27 1   
    15     5    28 1   
    16     5    29 1   
    17     6     7 1   
    18     6     8 1   
    19     6    30 1   
    20     7    31 1   
    21     8     9 1   
    22     8    10 1   
    23     8    32 1   
    24     9    33 1   
    25    10    11 1   
    26    10    34 1   
    27    10    35 1   
    28    11    12 1   
    29    11    36 1   
    30    12    13 1   
    31    12    37 1   
    32    13    14 1   
    33    13    38 1   
    34    13    39 1   
    35    14    15 1   
    36    14    40 1   
    37    14    41 1   
    38    15    16 ar  
    39    15    21 ar  
    40    16    17 ar  
    41    16    42 1   
    42    17    18 1   
    43    17    19 ar  
    44    18    43 1   
    45    19    20 ar  
    46    19    44 1   
    47    20    21 ar  
    48    20    45 1   
@<TRIPOS>SUBSTRUCTURE
     1 ESL         1 TEMP              0 ****  ****    0 ROOT
