@<TRIPOS>MOLECULE
ESM
   48    51     1     0     0
SMALL
No Charge or Current Charge


@<TRIPOS>ATOM
      1 C1           0.8660     0.2580     2.3460 ca         1 ESM      -0.151000
      2 C10         -0.1700     0.2460     1.3800 ca         1 ESM      -0.067300
      3 C11          1.5270     0.0170    -0.6180 c6         1 ESM      -0.068400
      4 C12          1.7840     0.3430    -2.1220 c6         1 ESM      -0.060400
      5 C13          0.6380    -0.1770    -3.0360 c5         1 ESM      -0.039000
      6 C14         -0.7090     0.4140    -2.5190 c5         1 ESM      -0.065700
      7 C15         -1.7040    -0.0140    -3.6340 c5         1 ESM      -0.064400
      8 C16         -0.8570     0.1420    -4.9460 c5         1 ESM      -0.116400
      9 C17          0.5940     0.4760    -4.4590 c5         1 ESM       0.171300
     10 C18          0.7170    -1.7470    -3.0850 c3         1 ESM      -0.073100
     11 C2           0.5910     0.0180     3.7100 ca         1 ESM       0.044100
     12 C3          -0.7340    -0.2230     4.1160 ca         1 ESM       0.121100
     13 C4          -1.7720    -0.2160     3.1770 ca         1 ESM      -0.127000
     14 C5          -1.5050     0.0260     1.8160 ca         1 ESM      -0.066300
     15 C6          -2.6930     0.0200     0.8450 c6         1 ESM      -0.027100
     16 C7          -2.3670     0.5820    -0.5530 c6         1 ESM      -0.070400
     17 C8          -1.0170     0.0210    -1.0470 c6         1 ESM      -0.045700
     18 C9           0.1330     0.5330    -0.1150 c6         1 ESM      -0.007400
     19 O17          1.5900    -0.0280    -5.3480 oh         1 ESM      -0.651000
     20 O3          -1.0060    -0.4570     5.4320 oh         1 ESM      -0.536100
     21 O2           1.5800     0.0130     4.6810 os         1 ESM      -0.368100
     22 C19          2.9670     0.2440     4.3710 c3         1 ESM       0.156900
     23 HC1          1.8840     0.4640     2.0380 ha         1 ESM       0.115000
     24 H111         2.3370     0.4880    -0.0480 hc         1 ESM       0.041200
     25 H112         1.6150    -1.0610    -0.4350 hc         1 ESM       0.041200
     26 H121         1.8780     1.4320    -2.2360 hc         1 ESM       0.044200
     27 H122         2.7480    -0.0770    -2.4400 hc         1 ESM       0.044200
     28 H14C        -0.6600     1.5120    -2.4970 hc         1 ESM       0.042700
     29 H151        -2.5980     0.6210    -3.6480 hc         1 ESM       0.044700
     30 H152        -2.0510    -1.0450    -3.4980 hc         1 ESM       0.044700
     31 H161        -1.2480     0.9390    -5.5880 hc         1 ESM       0.046200
     32 H162        -0.8900    -0.7800    -5.5370 hc         1 ESM       0.046200
     33 H17C         0.7070     1.5660    -4.3710 h1         1 ESM       0.026700
     34 H181         0.5610    -2.2080    -2.1040 hc         1 ESM       0.036700
     35 H182        -0.0190    -2.1930    -3.7620 hc         1 ESM       0.036700
     36 H183         1.7020    -2.0770    -3.4360 hc         1 ESM       0.036700
     37 HC4         -2.7910    -0.3970     3.5080 ha         1 ESM       0.127000
     38 HC61        -3.5310     0.5860     1.2740 hc         1 ESM       0.049200
     39 HC62        -3.0490    -1.0140     0.7390 hc         1 ESM       0.049200
     40 HC71        -2.3290     1.6790    -0.5160 hc         1 ESM       0.042700
     41 HC72        -3.1790     0.3180    -1.2450 hc         1 ESM       0.042700
     42 HC8         -1.0680    -1.0740    -0.9810 hc         1 ESM       0.058700
     43 HC9          0.1600     1.6290    -0.2070 hc         1 ESM       0.051700
     44 H17O         1.4380     0.4080    -6.2150 ho         1 ESM       0.441000
     45 HO3         -0.1440    -0.4100     5.9040 ho         1 ESM       0.480000
     46 H191         3.5740     0.1910     5.2840 h1         1 ESM       0.040367
     47 H192         3.3410    -0.5130     3.6700 h1         1 ESM       0.040367
     48 H193         3.1080     1.2370     3.9270 h1         1 ESM       0.040367
@<TRIPOS>BOND
     1     1     2 ar  
     2     1    11 ar  
     3     1    23 1   
     4     2    14 ar  
     5     2    18 1   
     6     3     4 1   
     7     3    18 1   
     8     3    24 1   
     9     3    25 1   
    10     4     5 1   
    11     4    26 1   
    12     4    27 1   
    13     5     6 1   
    14     5     9 1   
    15     5    10 1   
    16     6     7 1   
    17     6    17 1   
    18     6    28 1   
    19     7     8 1   
    20     7    29 1   
    21     7    30 1   
    22     8     9 1   
    23     8    31 1   
    24     8    32 1   
    25     9    19 1   
    26     9    33 1   
    27    10    34 1   
    28    10    35 1   
    29    10    36 1   
    30    11    12 ar  
    31    11    21 1   
    32    12    13 ar  
    33    12    20 1   
    34    13    14 ar  
    35    13    37 1   
    36    14    15 1   
    37    15    16 1   
    38    15    38 1   
    39    15    39 1   
    40    16    17 1   
    41    16    40 1   
    42    16    41 1   
    43    17    18 1   
    44    17    42 1   
    45    18    43 1   
    46    19    44 1   
    47    20    45 1   
    48    21    22 1   
    49    22    46 1   
    50    22    47 1   
    51    22    48 1   
@<TRIPOS>SUBSTRUCTURE
     1 ESM         1 TEMP              0 ****  ****    0 ROOT
