@<TRIPOS>MOLECULE
ESM
   48    51     1     0     0
SMALL
abcg2


@<TRIPOS>ATOM
      1 C1           0.8540     0.2570     2.2680 ca         1 ESM      -0.151000
      2 C10         -0.1820     0.2560     1.3250 ca         1 ESM      -0.067300
      3 C11          1.4910     0.0850    -0.6060 c6         1 ESM      -0.068400
      4 C12          1.7480     0.4020    -2.0820 c6         1 ESM      -0.060400
      5 C13          0.6370    -0.1410    -2.9730 c5         1 ESM      -0.039000
      6 C14         -0.7030     0.4180    -2.4760 c5         1 ESM      -0.065700
      7 C15         -1.6910     0.0640    -3.5890 c5         1 ESM      -0.064400
      8 C16         -0.8350     0.1190    -4.8750 c5         1 ESM      -0.116400
      9 C17          0.6110     0.3950    -4.4050 c5         1 ESM       0.171300
     10 C18          0.6740    -1.6730    -2.9880 c3         1 ESM      -0.073100
     11 C2           0.6220     0.0060     3.6080 ca         1 ESM       0.044100
     12 C3          -0.6850    -0.2530     4.0450 ca         1 ESM       0.121100
     13 C4          -1.7100    -0.2400     3.1220 ca         1 ESM      -0.127000
     14 C5          -1.4820     0.0140     1.7670 ca         1 ESM      -0.066300
     15 C6          -2.6630    -0.0100     0.8290 c6         1 ESM      -0.027100
     16 C7          -2.3490     0.5570    -0.5470 c6         1 ESM      -0.070400
     17 C8          -1.0130     0.0260    -1.0430 c6         1 ESM      -0.045700
     18 C9           0.1080     0.5580    -0.1350 c6         1 ESM      -0.007400
     19 O17          1.6130    -0.1800    -5.2070 oh         1 ESM      -0.651000
     20 O3          -0.9600    -0.5110     5.3430 oh         1 ESM      -0.536100
     21 O2           1.5650    -0.0170     4.5790 os         1 ESM      -0.368100
     22 C19          2.9090     0.2280     4.2220 c3         1 ESM       0.156900
     23 HC1          1.8630     0.4640     1.9400 ha         1 ESM       0.115000
     24 H111         2.2760     0.5670    -0.0200 hc         1 ESM       0.041200
     25 H112         1.5940    -0.9880    -0.4210 hc         1 ESM       0.041200
     26 H121         1.8080     1.4900    -2.2060 hc         1 ESM       0.044200
     27 H122         2.7210    -0.0000    -2.3780 hc         1 ESM       0.044200
     28 H14C        -0.5950     1.5140    -2.4850 hc         1 ESM       0.042700
     29 H151        -2.5330     0.7550    -3.6240 hc         1 ESM       0.044700
     30 H152        -2.1100    -0.9340    -3.4350 hc         1 ESM       0.044700
     31 H161        -1.1810     0.8890    -5.5670 hc         1 ESM       0.046200
     32 H162        -0.8710    -0.8280    -5.4180 hc         1 ESM       0.046200
     33 H17C         0.7570     1.4860    -4.3490 h1         1 ESM       0.026700
     34 H181         0.5040    -2.0950    -1.9980 hc         1 ESM       0.036700
     35 H182        -0.0780    -2.1060    -3.6490 hc         1 ESM       0.036700
     36 H183         1.6490    -2.0290    -3.3230 hc         1 ESM       0.036700
     37 HC4         -2.7200    -0.4360     3.4660 ha         1 ESM       0.127000
     38 HC61        -3.4990     0.5300     1.2810 hc         1 ESM       0.049200
     39 HC62        -3.0040    -1.0450     0.7200 hc         1 ESM       0.049200
     40 HC71        -2.3130     1.6520    -0.5110 hc         1 ESM       0.042700
     41 HC72        -3.1540     0.2950    -1.2380 hc         1 ESM       0.042700
     42 HC8         -1.0430    -1.0690    -0.9670 hc         1 ESM       0.058700
     43 HC9          0.0970     1.6530    -0.2480 hc         1 ESM       0.051700
     44 H17O         1.5530     0.2060    -6.0850 ho         1 ESM       0.441000
     45 HO3         -0.1480    -0.4900     5.8640 ho         1 ESM       0.480000
     46 H191         3.4940     0.1460     5.1350 h1         1 ESM       0.040367
     47 H192         3.2790    -0.5050     3.5000 h1         1 ESM       0.040367
     48 H193         3.0440     1.2300     3.8060 h1         1 ESM       0.040367
@<TRIPOS>BOND
     1     1     2 ar  
     2     1    11 ar  
     3     1    23 1   
     4     2    14 ar  
     5     2    18 1   
     6     3     4 1   
     7     3    18 1   
     8     3    24 1   
     9     3    25 1   
    10     4     5 1   
    11     4    26 1   
    12     4    27 1   
    13     5     6 1   
    14     5     9 1   
    15     5    10 1   
    16     6     7 1   
    17     6    17 1   
    18     6    28 1   
    19     7     8 1   
    20     7    29 1   
    21     7    30 1   
    22     8     9 1   
    23     8    31 1   
    24     8    32 1   
    25     9    19 1   
    26     9    33 1   
    27    10    34 1   
    28    10    35 1   
    29    10    36 1   
    30    11    12 ar  
    31    11    21 1   
    32    12    13 ar  
    33    12    20 1   
    34    13    14 ar  
    35    13    37 1   
    36    14    15 1   
    37    15    16 1   
    38    15    38 1   
    39    15    39 1   
    40    16    17 1   
    41    16    40 1   
    42    16    41 1   
    43    17    18 1   
    44    17    42 1   
    45    18    43 1   
    46    19    44 1   
    47    20    45 1   
    48    21    22 1   
    49    22    46 1   
    50    22    47 1   
    51    22    48 1   
@<TRIPOS>SUBSTRUCTURE
     1 ESM         1 TEMP              0 ****  ****    0 ROOT
