@<TRIPOS>MOLECULE
ESN
   71    75     1     0     0
SMALL
No Charge or Current Charge


@<TRIPOS>ATOM
      1 C1           3.7930     0.8880    -2.5500 c3         1 ESN      -0.097100
      2 C2           3.4890     1.7140    -1.2750 c3         1 ESN       0.051700
      3 C5          -0.0660     2.9380    -1.0490 ca         1 ESN      -0.066300
      4 C6          -1.1980     3.7590    -1.1320 ca         1 ESN      -0.109000
      5 C7          -2.4330     3.2640    -0.6620 ca         1 ESN      -0.055000
      6 C8          -2.5480     1.9580    -0.1010 cp         1 ESN      -0.170500
      7 C10         -0.1690     1.6660    -0.5190 ca         1 ESN      -0.165600
      8 C11          1.1580     1.0300    -0.5610 c          1 ESN       0.594600
      9 C13         -3.8620     1.4290     0.3850 cp         1 ESN       0.244500
     10 C15         -5.3400    -0.3390     0.4220 ca         1 ESN       0.395900
     11 C19         -9.1770    -2.7950    -0.7240 c6         1 ESN       0.157100
     12 C21         -7.8990    -4.6870     0.0860 c6         1 ESN       0.157100
     13 C22         -6.5730    -3.8940     0.0190 c6         1 ESN      -0.131900
     14 C24         -5.9600     1.5290     1.5880 ca         1 ESN       0.163900
     15 C25         -4.7610     2.1600     1.2130 ca         1 ESN      -0.065000
     16 C27          4.2000     1.2170     0.0290 c          1 ESN       0.582100
     17 C31          7.0260     1.0850     1.6210 c3         1 ESN       0.141600
     18 C35          8.7050    -2.1390    -1.0930 ca         1 ESN      -0.112000
     19 C36          8.6080    -3.3850    -0.4520 ca         1 ESN      -0.104000
     20 C37          7.7310    -3.5530     0.6360 ca         1 ESN      -0.075300
     21 C38          7.6250    -4.9010     1.3340 c3         1 ESN      -0.046800
     22 C39          6.9570    -2.4640     1.0790 ca         1 ESN      -0.100000
     23 N3           2.0310     1.9700    -1.1360 n          1 ESN      -0.405800
     24 C4           1.3560     3.2580    -1.4920 c5         1 ESN       0.144300
     25 C9          -1.3810     1.1470    -0.0460 ca         1 ESN       0.007000
     26 O12          1.4360    -0.1050    -0.1980 o          1 ESN      -0.530000
     27 N14         -4.1660     0.1680     0.0150 nb         1 ESN      -0.253000
     28 N16         -5.5960    -1.6370     0.0020 nu         1 ESN      -0.915100
     29 C17         -6.8490    -2.3830     0.1940 c6         1 ESN       0.248500
     30 C18         -7.9130    -1.9110    -0.8260 c6         1 ESN      -0.131900
     31 O20         -8.8190    -4.1820    -0.9060 os         1 ESN      -0.448000
     32 N23         -6.2560     0.2770     1.1910 nb         1 ESN      -0.240000
     33 Cl1         -4.4180     3.7780     1.8340 cl         1 ESN      -0.174000
     34 O28          3.7880     1.4870     1.1510 o          1 ESN      -0.594100
     35 N29          5.3420     0.4640    -0.1490 ns         1 ESN      -0.492900
     36 C30          6.1900    -0.0400     0.9360 c3         1 ESN       0.165000
     37 C33          7.0490    -1.2080     0.4430 ca         1 ESN      -0.090300
     38 C34          7.9290    -1.0560    -0.6490 ca         1 ESN      -0.092000
     39 H44          4.8630     0.8930    -2.7850 hc         1 ESN       0.052700
     40 H43          3.4650    -0.1520    -2.4270 hc         1 ESN       0.052700
     41 H42          3.2640     1.3110    -3.4130 hc         1 ESN       0.052700
     42 H40          3.9490     2.6940    -1.4560 h1         1 ESN       0.058700
     43 H47         -1.1290     4.7570    -1.5570 ha         1 ESN       0.122000
     44 H48         -3.3140     3.8960    -0.7500 ha         1 ESN       0.124000
     45 H54         -9.6570    -2.6680     0.2570 h1         1 ESN       0.048200
     46 H55         -9.9010    -2.5080    -1.5000 h1         1 ESN       0.048200
     47 H57         -7.7100    -5.7520    -0.1090 h1         1 ESN       0.048200
     48 H56         -8.3520    -4.5960     1.0840 h1         1 ESN       0.048200
     49 H58         -5.8890    -4.2480     0.8020 hc         1 ESN       0.058450
     50 H59         -6.0850    -4.0870    -0.9460 hc         1 ESN       0.058450
     51 H60         -6.6890     2.0280     2.2250 h4         1 ESN       0.033100
     52 H62          6.3420     1.7300     2.1890 h1         1 ESN       0.034200
     53 H63          7.7120     0.6240     2.3450 h1         1 ESN       0.034200
     54 H67          9.2140    -4.2180    -0.8010 ha         1 ESN       0.111000
     55 H69          8.3090    -4.9520     2.1890 hc         1 ESN       0.043033
     56 H68          6.6090    -5.0790     1.7060 hc         1 ESN       0.043033
     57 H70          7.8750    -5.7250     0.6550 hc         1 ESN       0.043033
     58 H71          6.2820    -2.5960     1.9210 ha         1 ESN       0.112000
     59 H46          1.4100     3.4630    -2.5690 h1         1 ESN       0.062200
     60 H45          1.7740     4.1070    -0.9360 h1         1 ESN       0.062200
     61 H49         -1.4190     0.1390     0.3650 ha         1 ESN       0.148000
     62 H50         -4.8690    -2.0520    -0.5820 hn         1 ESN       0.507000
     63 H51         -7.2370    -2.2290     1.2140 h1         1 ESN       0.079700
     64 H52         -7.5120    -1.9650    -1.8470 hc         1 ESN       0.058450
     65 H53         -8.1810    -0.8620    -0.6440 hc         1 ESN       0.058450
     66 H61          5.6370     0.2890    -1.0990 hn         1 ESN       0.319500
     67 H41          5.5170    -0.4360     1.7100 h1         1 ESN       0.085700
     68 H64          8.2540     2.5600     1.1810 ho         1 ESN       0.444000
     69 H65          8.0150    -0.0970    -1.1560 ha         1 ESN       0.116000
     70 O32          7.7610     1.8810     0.6690 oh         1 ESN      -0.666000
     71 H66          9.3820    -2.0130    -1.9340 ha         1 ESN       0.112000
@<TRIPOS>BOND
     1     1     2 1   
     2     1    39 1   
     3     1    40 1   
     4     1    41 1   
     5     2    16 1   
     6     2    23 1   
     7     2    42 1   
     8     3     4 ar  
     9     3     7 ar  
    10     3    24 1   
    11     4     5 ar  
    12     4    43 1   
    13     5     6 ar  
    14     5    44 1   
    15     6     9 1   
    16     6    25 ar  
    17     7     8 1   
    18     7    25 ar  
    19     8    23 1   
    20     8    26 2   
    21     9    15 ar  
    22     9    27 ar  
    23    10    27 ar  
    24    10    28 1   
    25    10    32 ar  
    26    11    30 1   
    27    11    31 1   
    28    11    45 1   
    29    11    46 1   
    30    12    13 1   
    31    12    31 1   
    32    12    47 1   
    33    12    48 1   
    34    13    29 1   
    35    13    49 1   
    36    13    50 1   
    37    14    15 ar  
    38    14    32 ar  
    39    14    51 1   
    40    15    33 1   
    41    16    34 2   
    42    16    35 1   
    43    17    36 1   
    44    17    52 1   
    45    17    53 1   
    46    17    70 1   
    47    18    19 ar  
    48    18    38 ar  
    49    18    71 1   
    50    19    20 ar  
    51    19    54 1   
    52    20    21 1   
    53    20    22 ar  
    54    21    55 1   
    55    21    56 1   
    56    21    57 1   
    57    22    37 ar  
    58    22    58 1   
    59    23    24 1   
    60    24    59 1   
    61    24    60 1   
    62    25    61 1   
    63    28    29 1   
    64    28    62 1   
    65    29    30 1   
    66    29    63 1   
    67    30    64 1   
    68    30    65 1   
    69    35    36 1   
    70    35    66 1   
    71    36    37 1   
    72    36    67 1   
    73    37    38 ar  
    74    38    69 1   
    75    68    70 1   
@<TRIPOS>SUBSTRUCTURE
     1 ESN         1 TEMP              0 ****  ****    0 ROOT
