@<TRIPOS>MOLECULE
ESN
   71    75     1     0     0
SMALL
bcc


@<TRIPOS>ATOM
      1 C1           3.4500    -0.1910    -2.5810 c3         1 ESN      -0.097100
      2 C2           3.2850     0.9080    -1.5290 c3         1 ESN       0.051700
      3 C5           0.0350     2.4410    -0.7330 ca         1 ESN      -0.066300
      4 C6          -0.9570     3.3880    -0.5500 ca         1 ESN      -0.127000
      5 C7          -2.1930     2.9610    -0.0860 ca         1 ESN      -0.073000
      6 C8          -2.4460     1.6110     0.1830 cp         1 ESN      -0.170500
      7 C10         -0.2160     1.1050    -0.4730 ca         1 ESN      -0.165600
      8 C11          1.0060     0.3230    -0.7640 c          1 ESN       0.737100
      9 C13         -3.7790     1.1530     0.6300 cp         1 ESN       0.572800
     10 C15         -5.4700    -0.3680     0.3690 ca         1 ESN       0.921900
     11 C19         -9.6130    -2.1130    -0.7780 c6         1 ESN       0.133900
     12 C21         -8.5580    -4.1500    -0.3250 c6         1 ESN       0.133900
     13 C22         -7.1670    -3.5440    -0.4400 c6         1 ESN      -0.131900
     14 C24         -5.7590     1.2290     1.9360 ca         1 ESN       0.492200
     15 C25         -4.5110     1.7600     1.6530 ca         1 ESN      -0.287200
     16 C27          4.0400     0.6350    -0.2190 c          1 ESN       0.649100
     17 C31          6.8000     1.3760     1.2710 c3         1 ESN       0.118400
     18 C35          9.0460    -1.7180    -1.1170 ca         1 ESN      -0.130000
     19 C36          9.3060    -2.7760    -0.2560 ca         1 ESN      -0.122000
     20 C37          8.5820    -2.9200     0.9240 ca         1 ESN      -0.075300
     21 C38          8.8630    -4.0460     1.8760 c3         1 ESN      -0.046800
     22 C39          7.5880    -1.9850     1.2060 ca         1 ESN      -0.118000
     23 N3           1.9080     1.2140    -1.2460 n          1 ESN      -0.472800
     24 C4           1.4440     2.5860    -1.2050 c5         1 ESN       0.144300
     25 C9          -1.4470     0.6640    -0.0260 ca         1 ESN      -0.011000
     26 O12          1.1650    -0.8760    -0.6170 o          1 ESN      -0.605500
     27 N14         -4.2650     0.0890     0.0110 nb         1 ESN      -0.779000
     28 N16         -5.9040    -1.4720    -0.2600 nu         1 ESN      -0.859900
     29 C17         -7.2130    -2.0620    -0.0860 c6         1 ESN       0.248500
     30 C18         -8.2900    -1.3760    -0.9260 c6         1 ESN      -0.131900
     31 O20         -9.5000    -3.4750    -1.1280 os         1 ESN      -0.401600
     32 N23         -6.2540     0.1860     1.3020 nb         1 ESN      -0.766000
     33 CL1         -3.9160     3.0730     2.6030 cl         1 ESN      -0.082400
     34 O28          3.5020     0.7500     0.8690 o          1 ESN      -0.594100
     35 N29          5.3250     0.2820    -0.3780 ns         1 ESN      -0.559900
     36 C30          6.2330     0.0640     0.7350 c3         1 ESN       0.165000
     37 C33          7.3150    -0.9210     0.3530 ca         1 ESN      -0.090300
     38 C34          8.0620    -0.7890    -0.8160 ca         1 ESN      -0.110000
     39 H44          4.4820    -0.2570    -2.9200 hc         1 ESN       0.052700
     40 H43          3.1490    -1.1660    -2.2090 hc         1 ESN       0.052700
     41 H42          2.8450     0.0530    -3.4540 hc         1 ESN       0.052700
     42 H40          3.7170     1.8220    -1.9490 h1         1 ESN       0.058700
     43 H47         -0.7870     4.4350    -0.7640 ha         1 ESN       0.140000
     44 H48         -2.9790     3.6920     0.0420 ha         1 ESN       0.142000
     45 H54         -9.9720    -2.0140     0.2570 h1         1 ESN       0.048200
     46 H55        -10.3720    -1.6770    -1.4290 h1         1 ESN       0.048200
     47 H57         -8.5450    -5.1920    -0.6500 h1         1 ESN       0.048200
     48 H56         -8.8740    -4.1390     0.7290 h1         1 ESN       0.048200
     49 H58         -6.4830    -4.0760     0.2250 hc         1 ESN       0.058450
     50 H59         -6.7960    -3.6720    -1.4630 hc         1 ESN       0.058450
     51 H60         -6.3740     1.6740     2.7110 h4         1 ESN       0.033100
     52 H62          5.9700     1.9800     1.6560 h1         1 ESN       0.034200
     53 H63          7.4500     1.1400     2.1240 h1         1 ESN       0.034200
     54 H67         10.0750    -3.4970    -0.5050 ha         1 ESN       0.129000
     55 H69          9.4310    -3.6950     2.7400 hc         1 ESN       0.043033
     56 H68          7.9420    -4.4880     2.2560 hc         1 ESN       0.043033
     57 H70          9.4450    -4.8350     1.4000 hc         1 ESN       0.043033
     58 H71          7.0050    -2.0910     2.1150 ha         1 ESN       0.130000
     59 H46          1.5050     3.0550    -2.1910 h1         1 ESN       0.062200
     60 H45          2.0420     3.1880    -0.5130 h1         1 ESN       0.062200
     61 H49         -1.6310    -0.3860     0.1630 ha         1 ESN       0.166000
     62 H50         -5.3230    -1.8140    -1.0090 hn         1 ESN       0.451800
     63 H51         -7.4840    -1.9680     0.9690 h1         1 ESN       0.079700
     64 H52         -7.9830    -1.3660    -1.9760 hc         1 ESN       0.058450
     65 H53         -8.4180    -0.3380    -0.6120 hc         1 ESN       0.058450
     66 H61          5.7160     0.3060    -1.3050 hn         1 ESN       0.319500
     67 H41          5.6520    -0.3750     1.5480 h1         1 ESN       0.085700
     68 H64          7.8120     2.8760     0.5850 ho         1 ESN       0.405000
     69 H65          7.8930     0.0310    -1.5020 ha         1 ESN       0.134000
     70 O32          7.4910     2.0370     0.2430 oh         1 ESN      -0.603800
     71 H66          9.6180    -1.6170    -2.0310 ha         1 ESN       0.130000
@<TRIPOS>BOND
     1     1     2 1   
     2     1    39 1   
     3     1    40 1   
     4     1    41 1   
     5     2    16 1   
     6     2    23 1   
     7     2    42 1   
     8     3     4 ar  
     9     3     7 ar  
    10     3    24 1   
    11     4     5 ar  
    12     4    43 1   
    13     5     6 ar  
    14     5    44 1   
    15     6     9 1   
    16     6    25 ar  
    17     7     8 1   
    18     7    25 ar  
    19     8    23 1   
    20     8    26 2   
    21     9    15 ar  
    22     9    27 ar  
    23    10    27 ar  
    24    10    28 1   
    25    10    32 ar  
    26    11    30 1   
    27    11    31 1   
    28    11    45 1   
    29    11    46 1   
    30    12    13 1   
    31    12    31 1   
    32    12    47 1   
    33    12    48 1   
    34    13    29 1   
    35    13    49 1   
    36    13    50 1   
    37    14    15 ar  
    38    14    32 ar  
    39    14    51 1   
    40    15    33 1   
    41    16    34 2   
    42    16    35 1   
    43    17    36 1   
    44    17    52 1   
    45    17    53 1   
    46    17    70 1   
    47    18    19 ar  
    48    18    38 ar  
    49    18    71 1   
    50    19    20 ar  
    51    19    54 1   
    52    20    21 1   
    53    20    22 ar  
    54    21    55 1   
    55    21    56 1   
    56    21    57 1   
    57    22    37 ar  
    58    22    58 1   
    59    23    24 1   
    60    24    59 1   
    61    24    60 1   
    62    25    61 1   
    63    28    29 1   
    64    28    62 1   
    65    29    30 1   
    66    29    63 1   
    67    30    64 1   
    68    30    65 1   
    69    35    36 1   
    70    35    66 1   
    71    36    37 1   
    72    36    67 1   
    73    37    38 ar  
    74    38    69 1   
    75    68    70 1   
@<TRIPOS>SUBSTRUCTURE
     1 ESN         1 TEMP              0 ****  ****    0 ROOT
