@<TRIPOS>MOLECULE
ESO
   45    48     1     0     0
SMALL
abcg2


@<TRIPOS>ATOM
      1 C1           1.2360    -1.2030    -1.0210 ca         1 ESO      -0.098000
      2 C2           1.1360    -1.2480    -2.4010 ca         1 ESO      -0.176000
      3 C3          -0.0750    -0.9500    -3.0260 ca         1 ESO       0.299100
      4 O3          -0.2100    -1.0570    -4.3550 os         1 ESO      -0.435500
      5 P            0.0240     0.3690    -5.3400 p5         1 ESO       1.250900
      6 O1P          1.4430     0.8030    -5.0120 o          1 ESO      -0.899167
      7 O2P         -0.1810    -0.2380    -6.7170 o          1 ESO      -0.899167
      8 O3P         -1.0610     1.3250    -4.8710 o          1 ESO      -0.899167
      9 C4          -1.1490    -0.5830    -2.2220 ca         1 ESO      -0.179000
     10 C5          -1.0530    -0.5390    -0.8320 ca         1 ESO      -0.066300
     11 C6          -2.2780    -0.1400    -0.0470 c6         1 ESO      -0.022100
     12 C7          -2.1750    -0.4680     1.4330 c6         1 ESO      -0.061400
     13 C8          -0.8270    -0.0110     1.9690 c6         1 ESO      -0.048700
     14 C9           0.2890    -0.8410     1.3090 c6         1 ESO       0.025600
     15 C10          0.1620    -0.8430    -0.2040 ca         1 ESO      -0.192300
     16 C11          1.6770    -0.4190     1.8150 c6         1 ESO      -0.073400
     17 C12          1.7860    -0.4720     3.3430 c6         1 ESO      -0.053400
     18 C13          0.6700     0.3410     3.9800 c5         1 ESO      -0.147000
     19 C14         -0.6910    -0.1540     3.4720 c5         1 ESO      -0.055700
     20 C15         -1.6980     0.5050     4.4150 c5         1 ESO      -0.068400
     21 C16         -1.0040     0.3780     5.7790 c5         1 ESO      -0.194400
     22 C17          0.4790     0.2070     5.4740 c          1 ESO       0.581100
     23 O17          1.3440     0.0020     6.2920 o          1 ESO      -0.543100
     24 C18          0.8980     1.8480     3.7520 c3         1 ESO      -0.078100
     25 H1           2.1890    -1.4600    -0.5750 ha         1 ESO       0.063000
     26 H2           1.9930    -1.5340    -2.9980 ha         1 ESO       0.121000
     27 H4          -2.0940    -0.3410    -2.6960 ha         1 ESO       0.127000
     28 H61         -3.1610    -0.6140    -0.4830 hc         1 ESO       0.037700
     29 H62         -2.4340     0.9380    -0.1610 hc         1 ESO       0.037700
     30 H71         -2.2830    -1.5460     1.5970 hc         1 ESO       0.018200
     31 H72         -2.9940     0.0150     1.9710 hc         1 ESO       0.018200
     32 H8          -0.6990     1.0450     1.6910 hc         1 ESO       0.059700
     33 H9           0.1330    -1.8750     1.6540 hc         1 ESO       0.018700
     34 H111         1.9070     0.5870     1.4510 hc         1 ESO       0.049200
     35 H112         2.4460    -1.0720     1.4010 hc         1 ESO       0.049200
     36 H121         2.7680    -0.1130     3.6600 hc         1 ESO       0.035200
     37 H122         1.7100    -1.5150     3.6700 hc         1 ESO       0.035200
     38 H14         -0.7290    -1.2340     3.6910 hc         1 ESO       0.040700
     39 H151        -1.8690     1.5490     4.1450 hc         1 ESO       0.045700
     40 H152        -2.6680     0.0080     4.4050 hc         1 ESO       0.045700
     41 H161        -1.1650     1.2230     6.4510 hc         1 ESO       0.056700
     42 H162        -1.3450    -0.5130     6.3130 hc         1 ESO       0.056700
     43 H181         0.9280     2.0990     2.6930 hc         1 ESO       0.039367
     44 H182         0.1250     2.4690     4.2070 hc         1 ESO       0.039367
     45 H183         1.8540     2.1430     4.1870 hc         1 ESO       0.039367
@<TRIPOS>BOND
     1     1     2 ar  
     2     1    15 ar  
     3     1    25 1   
     4     2     3 ar  
     5     2    26 1   
     6     3     4 1   
     7     3     9 ar  
     8     4     5 1   
     9     5     6 1   
    10     5     7 1   
    11     5     8 1   
    12     9    10 ar  
    13     9    27 1   
    14    10    11 1   
    15    10    15 ar  
    16    11    12 1   
    17    11    28 1   
    18    11    29 1   
    19    12    13 1   
    20    12    30 1   
    21    12    31 1   
    22    13    14 1   
    23    13    19 1   
    24    13    32 1   
    25    14    15 1   
    26    14    16 1   
    27    14    33 1   
    28    16    17 1   
    29    16    34 1   
    30    16    35 1   
    31    17    18 1   
    32    17    36 1   
    33    17    37 1   
    34    18    19 1   
    35    18    22 1   
    36    18    24 1   
    37    19    20 1   
    38    19    38 1   
    39    20    21 1   
    40    20    39 1   
    41    20    40 1   
    42    21    22 1   
    43    21    41 1   
    44    21    42 1   
    45    22    23 2   
    46    24    43 1   
    47    24    44 1   
    48    24    45 1   
@<TRIPOS>SUBSTRUCTURE
     1 ESO         1 TEMP              0 ****  ****    0 ROOT
