@<TRIPOS>MOLECULE
ESO
   45    48     1     0     0
SMALL
No Charge or Current Charge


@<TRIPOS>ATOM
      1 C1           1.4770    -1.1700    -0.9980 ca         1 ESO      -0.098000
      2 C2           1.4590    -1.1040    -2.3990 ca         1 ESO      -0.176000
      3 C3           0.3290    -0.6330    -3.0810 ca         1 ESO       0.299100
      4 O3           0.3840    -0.5960    -4.4520 os         1 ESO      -0.435500
      5 P           -0.7520    -0.1090    -5.4880 p5         1 ESO       1.250900
      6 O1P         -1.0950     1.3190    -5.2380 o          1 ESO      -0.899167
      7 O2P         -0.2310    -0.2480    -6.8770 o          1 ESO      -0.899167
      8 O3P         -1.9730    -0.9500    -5.3400 o          1 ESO      -0.899167
      9 C4          -0.7980    -0.2320    -2.3380 ca         1 ESO      -0.179000
     10 C5          -0.7960    -0.2970    -0.9300 ca         1 ESO      -0.066300
     11 C6          -2.0620     0.1590    -0.1910 c6         1 ESO      -0.022100
     12 C7          -2.0910    -0.2120     1.3060 c6         1 ESO      -0.061400
     13 C8          -0.7200     0.0800     1.9510 c6         1 ESO      -0.048700
     14 C9           0.3660    -0.8480     1.3090 c6         1 ESO       0.025600
     15 C10          0.3600    -0.7510    -0.2400 ca         1 ESO      -0.192300
     16 C11          1.7670    -0.6150     1.9760 c6         1 ESO      -0.073400
     17 C12          1.7290    -0.7210     3.5330 c6         1 ESO      -0.053400
     18 C13          0.6460     0.2110     4.1520 c5         1 ESO      -0.147000
     19 C14         -0.7260    -0.1250     3.4910 c5         1 ESO      -0.055700
     20 C15         -1.7480     0.6620     4.3670 c5         1 ESO      -0.068400
     21 C16         -1.1170     0.5570     5.7990 c5         1 ESO      -0.194400
     22 C17          0.2770    -0.0790     5.6220 c          1 ESO       0.581100
     23 O17          0.8030    -0.8890     6.3760 o          1 ESO      -0.543100
     24 C18          1.1240     1.7000     4.0220 c3         1 ESO      -0.078100
     25 H1           2.3690    -1.5580    -0.5190 ha         1 ESO       0.063000
     26 H2           2.3290    -1.4260    -2.9660 ha         1 ESO       0.121000
     27 H4          -1.6870     0.1310    -2.8420 ha         1 ESO       0.127000
     28 H61         -2.9530    -0.2560    -0.6820 hc         1 ESO       0.037700
     29 H62         -2.1460     1.2510    -0.2870 hc         1 ESO       0.037700
     30 H71         -2.3430    -1.2750     1.4230 hc         1 ESO       0.018200
     31 H72         -2.8880     0.3580     1.8020 hc         1 ESO       0.018200
     32 H8          -0.4650     1.1280     1.7380 hc         1 ESO       0.059700
     33 H9           0.0850    -1.8840     1.5430 hc         1 ESO       0.018700
     34 H111         2.1690     0.3590     1.6660 hc         1 ESO       0.049200
     35 H112         2.4850    -1.3640     1.6210 hc         1 ESO       0.049200
     36 H121         2.7190    -0.4930     3.9520 hc         1 ESO       0.035200
     37 H122         1.5150    -1.7640     3.8080 hc         1 ESO       0.035200
     38 H14         -0.9370    -1.1960     3.6170 hc         1 ESO       0.040700
     39 H151        -1.8410     1.7050     4.0420 hc         1 ESO       0.045700
     40 H152        -2.7510     0.2230     4.3240 hc         1 ESO       0.045700
     41 H161        -0.9800     1.5710     6.1890 hc         1 ESO       0.056700
     42 H162        -1.7110    -0.0150     6.5200 hc         1 ESO       0.056700
     43 H181         1.2990     1.9960     2.9820 hc         1 ESO       0.039367
     44 H182         0.4060     2.4180     4.4330 hc         1 ESO       0.039367
     45 H183         2.0660     1.8520     4.5620 hc         1 ESO       0.039367
@<TRIPOS>BOND
     1     1     2 ar  
     2     1    15 ar  
     3     1    25 1   
     4     2     3 ar  
     5     2    26 1   
     6     3     4 1   
     7     3     9 ar  
     8     4     5 1   
     9     5     6 1   
    10     5     7 1   
    11     5     8 1   
    12     9    10 ar  
    13     9    27 1   
    14    10    11 1   
    15    10    15 ar  
    16    11    12 1   
    17    11    28 1   
    18    11    29 1   
    19    12    13 1   
    20    12    30 1   
    21    12    31 1   
    22    13    14 1   
    23    13    19 1   
    24    13    32 1   
    25    14    15 1   
    26    14    16 1   
    27    14    33 1   
    28    16    17 1   
    29    16    34 1   
    30    16    35 1   
    31    17    18 1   
    32    17    36 1   
    33    17    37 1   
    34    18    19 1   
    35    18    22 1   
    36    18    24 1   
    37    19    20 1   
    38    19    38 1   
    39    20    21 1   
    40    20    39 1   
    41    20    40 1   
    42    21    22 1   
    43    21    41 1   
    44    21    42 1   
    45    22    23 2   
    46    24    43 1   
    47    24    44 1   
    48    24    45 1   
@<TRIPOS>SUBSTRUCTURE
     1 ESO         1 TEMP              0 ****  ****    0 ROOT
