@<TRIPOS>MOLECULE
ESP
   20    21     1     0     0
SMALL
No Charge or Current Charge


@<TRIPOS>ATOM
      1 C0          -2.7510    -0.2410     0.0470 ce         1 ESP       0.556100
      2 C1          -1.2940    -0.1780     0.0530 cc         1 ESP      -0.306000
      3 N1          -3.4910     0.9010     0.1610 nv         1 ESP      -0.570200
      4 N2          -3.4020    -1.4350    -0.0750 nv         1 ESP      -0.554300
      5 S2          -0.4340     1.4020     0.0780 ss         1 ESP      -0.035900
      6 C3           1.1420     0.5590     0.0730 ca         1 ESP       0.420300
      7 C4           1.0120    -0.8140     0.0570 ca         1 ESP      -0.162800
      8 C5          -0.3750    -1.2190     0.0470 cd         1 ESP      -0.037200
      9 N6           2.3280     1.2040     0.0850 nb         1 ESP      -0.631000
     10 C7           3.4400     0.4250     0.0800 ca         1 ESP       0.402900
     11 C8           3.3950    -0.9850     0.0640 ca         1 ESP      -0.154000
     12 C9           2.1470    -1.6360     0.0520 ca         1 ESP      -0.002000
     13 HH11        -3.0060     1.7520     0.4100 hn         1 ESP       0.379500
     14 HH12        -4.4700     0.8270     0.4010 hn         1 ESP       0.379500
     15 HH21        -4.3880    -1.4230    -0.2920 hn         1 ESP       0.379500
     16 HH22        -2.8700    -2.2410    -0.3700 hn         1 ESP       0.379500
     17 H5          -0.6650    -2.2690     0.0440 ha         1 ESP       0.215000
     18 H7           4.3970     0.9470     0.0900 h4         1 ESP       0.049100
     19 H8           4.3190    -1.5560     0.0620 ha         1 ESP       0.152000
     20 H9           2.0700    -2.7210     0.0400 ha         1 ESP       0.141000
@<TRIPOS>BOND
     1     1     2 1   
     2     1     3 2   
     3     1     4 1   
     4     2     5 1   
     5     2     8 2   
     6     3    13 1   
     7     3    14 1   
     8     4    15 1   
     9     4    16 1   
    10     5     6 1   
    11     6     7 ar  
    12     6     9 ar  
    13     7     8 1   
    14     7    12 ar  
    15     8    17 1   
    16     9    10 ar  
    17    10    11 ar  
    18    10    18 1   
    19    11    12 ar  
    20    11    19 1   
    21    12    20 1   
@<TRIPOS>SUBSTRUCTURE
     1 ESP         1 TEMP              0 ****  ****    0 ROOT
