@<TRIPOS>MOLECULE
ESP
   20    21     1     0     0
SMALL
bcc


@<TRIPOS>ATOM
      1 C0          -2.7050    -0.2270     0.0170 ce         1 ESP       0.556100
      2 C1          -1.2490    -0.1770    -0.0040 cc         1 ESP      -0.306000
      3 N1          -3.3790     0.8020     0.4720 nv         1 ESP      -0.469600
      4 N2          -3.3040    -1.3040    -0.4280 nv         1 ESP      -0.453700
      5 S2          -0.4210     1.3370    -0.2120 ss         1 ESP      -0.035900
      6 C3           1.1090     0.5290    -0.0810 ca         1 ESP       0.485600
      7 C4           0.9530    -0.8550     0.1070 ca         1 ESP      -0.228100
      8 C5          -0.4170    -1.2400     0.1480 cd         1 ESP       0.012800
      9 N6           2.2600     1.1700    -0.1670 nb         1 ESP      -0.631000
     10 C7           3.3460     0.4240    -0.0550 ca         1 ESP       0.468200
     11 C8           3.3260    -0.9630     0.1420 ca         1 ESP      -0.237300
     12 C9           2.1180    -1.6180     0.2240 ca         1 ESP      -0.020000
     13 HH11        -2.9230     1.5510     0.9670 hn         1 ESP       0.329200
     14 HH12        -4.3880     0.8230     0.4570 hn         1 ESP       0.329200
     15 HH21        -4.3040    -1.4250    -0.3610 hn         1 ESP       0.329200
     16 HH22        -2.7880    -2.0240    -0.9090 hn         1 ESP       0.329200
     17 H5          -0.7500    -2.2560     0.3140 ha         1 ESP       0.165000
     18 H7           4.2950     0.9430    -0.1240 h4         1 ESP       0.049100
     19 H8           4.2580    -1.5020     0.2270 ha         1 ESP       0.170000
     20 H9           2.0660    -2.6890     0.3710 ha         1 ESP       0.159000
@<TRIPOS>BOND
     1     1     2 1   
     2     1     3 2   
     3     1     4 1   
     4     2     5 1   
     5     2     8 2   
     6     3    13 1   
     7     3    14 1   
     8     4    15 1   
     9     4    16 1   
    10     5     6 1   
    11     6     7 ar  
    12     6     9 ar  
    13     7     8 1   
    14     7    12 ar  
    15     8    17 1   
    16     9    10 ar  
    17    10    11 ar  
    18    10    18 1   
    19    11    12 ar  
    20    11    19 1   
    21    12    20 1   
@<TRIPOS>SUBSTRUCTURE
     1 ESP         1 TEMP              0 ****  ****    0 ROOT
