@<TRIPOS>MOLECULE
ESQ
   60    64     1     0     0
SMALL
abcg2


@<TRIPOS>ATOM
      1 C2           2.8640    -2.2620     0.8620 ca         1 ESQ      -0.066000
      2 C3           4.1890    -2.0650     1.2150 ca         1 ESQ       0.165900
      3 N4           4.8550    -0.9710     0.9090 nb         1 ESQ      -0.240000
      4 C5           4.1760    -0.0250     0.2490 ca         1 ESQ       0.395900
      5 C7           6.1930     1.4040     0.2330 c6         1 ESQ       0.246500
      6 C8           6.4180     2.9060     0.3590 c6         1 ESQ      -0.131900
      7 C11          8.5600     1.2480    -0.5450 c6         1 ESQ       0.157100
      8 C12          7.1240     0.8400    -0.8390 c6         1 ESQ      -0.131900
      9 C14          2.2410    -1.2410     0.1390 cp         1 ESQ       0.242500
     10 C15          0.8330    -1.2980    -0.3100 cp         1 ESQ      -0.168500
     11 C16          0.3280    -2.4190    -0.9790 ca         1 ESQ      -0.054000
     12 C19         -3.2490    -1.1600    -1.4640 c5         1 ESQ       0.142300
     13 C22         -5.5440     0.4920     0.3430 c3         1 ESQ       0.143800
     14 C24         -7.4600     1.2280     1.6080 c6         1 ESQ       0.128800
     15 C25         -8.8510     1.8180     1.4810 c6         1 ESQ       0.153100
     16 C27         -9.1720     0.7320    -0.5480 c6         1 ESQ       0.153100
     17 C28         -7.7870     0.1210    -0.4660 c6         1 ESQ       0.128800
     18 C31         -1.3020    -0.2700    -0.5080 ca         1 ESQ      -0.171600
     19 CL1          2.0560    -3.6970     1.3770 cl         1 ESQ      -0.175000
     20 N6           4.7980     1.1310    -0.0320 nu         1 ESQ      -0.912100
     21 C9           7.8970     3.1910     0.5770 c6         1 ESQ       0.157100
     22 O10          8.7000     2.6500    -0.4480 os         1 ESQ      -0.448000
     23 N13          2.9030    -0.1340    -0.1490 nb         1 ESQ      -0.251000
     24 C17         -0.9890    -2.4730    -1.4120 ca         1 ESQ      -0.107000
     25 C18         -1.8050    -1.3860    -1.1540 ca         1 ESQ      -0.071300
     26 N20         -3.4760     0.1750    -0.9500 n          1 ESQ      -0.421800
     27 N23         -6.9020     0.9900     0.2880 n3         1 ESQ      -0.719600
     28 O26         -9.7060     0.9820     0.7330 os         1 ESQ      -0.450000
     29 C29         -2.3850     0.7290    -0.3710 c          1 ESQ       0.580600
     30 C32          0.0120    -0.1970    -0.0870 ca         1 ESQ       0.005000
     31 H33          4.7230    -2.8290     1.7710 h4         1 ESQ       0.034100
     32 H35          6.4480     0.9380     1.1890 h1         1 ESQ       0.079700
     33 H37          6.0750     3.4130    -0.5490 hc         1 ESQ       0.058950
     34 H36          5.8440     3.3100     1.1970 hc         1 ESQ       0.058950
     35 H40          8.8920     0.7660     0.3860 h1         1 ESQ       0.048200
     36 H41          9.2270     0.9140    -1.3410 h1         1 ESQ       0.048200
     37 H42          7.0550    -0.2500    -0.8690 hc         1 ESQ       0.058950
     38 H43          6.8200     1.2160    -1.8210 hc         1 ESQ       0.058950
     39 H44          0.9790    -3.2580    -1.1850 ha         1 ESQ       0.125000
     40 H46         -3.4550    -1.2100    -2.5380 h1         1 ESQ       0.061700
     41 H47         -3.8910    -1.8960    -0.9720 h1         1 ESQ       0.061700
     42 H48         -5.3230     0.4080    -1.8210 h1         1 ESQ       0.062700
     43 H49         -4.6790     1.8610    -1.0800 h1         1 ESQ       0.062700
     44 H50         -5.5060    -0.5870     0.5650 h1         1 ESQ       0.041700
     45 H51         -5.0220     0.9930     1.1620 h1         1 ESQ       0.041700
     46 H53         -7.5010     0.3050     2.2100 h1         1 ESQ       0.040450
     47 H54         -9.2990     1.9430     2.4680 h1         1 ESQ       0.051200
     48 H55         -8.7800     2.8110     1.0140 h1         1 ESQ       0.051200
     49 H57         -9.1270     1.6600    -1.1370 h1         1 ESQ       0.051200
     50 H56         -9.8520     0.0470    -1.0570 h1         1 ESQ       0.051200
     51 H59         -7.8540    -0.8820    -0.0090 h1         1 ESQ       0.040450
     52 H58         -7.4110    -0.0170    -1.4820 h1         1 ESQ       0.040450
     53 H34          4.2900     1.7770    -0.6170 hn         1 ESQ       0.507000
     54 H39          8.0800     4.2660     0.5950 h1         1 ESQ       0.048200
     55 H38          8.2040     2.7880     1.5540 h1         1 ESQ       0.048200
     56 H45         -1.3570    -3.3460    -1.9330 ha         1 ESQ       0.123000
     57 H60          0.3900     0.6850     0.4150 ha         1 ESQ       0.148000
     58 C21         -4.7840     0.7840    -0.9510 c3         1 ESQ       0.115000
     59 O30         -2.3230     1.8290     0.1530 o          1 ESQ      -0.538000
     60 H52         -6.8260     1.9370     2.1460 h1         1 ESQ       0.040450
@<TRIPOS>BOND
     1     1     2 ar  
     2     1     9 ar  
     3     1    19 1   
     4     2     3 ar  
     5     2    31 1   
     6     3     4 ar  
     7     4    20 1   
     8     4    23 ar  
     9     5     6 1   
    10     5     8 1   
    11     5    20 1   
    12     5    32 1   
    13     6    21 1   
    14     6    33 1   
    15     6    34 1   
    16     7     8 1   
    17     7    22 1   
    18     7    35 1   
    19     7    36 1   
    20     8    37 1   
    21     8    38 1   
    22     9    10 1   
    23     9    23 ar  
    24    10    11 ar  
    25    10    30 ar  
    26    11    24 ar  
    27    11    39 1   
    28    12    25 1   
    29    12    26 1   
    30    12    40 1   
    31    12    41 1   
    32    13    27 1   
    33    13    44 1   
    34    13    45 1   
    35    13    58 1   
    36    14    15 1   
    37    14    27 1   
    38    14    46 1   
    39    14    60 1   
    40    15    28 1   
    41    15    47 1   
    42    15    48 1   
    43    16    17 1   
    44    16    28 1   
    45    16    49 1   
    46    16    50 1   
    47    17    27 1   
    48    17    51 1   
    49    17    52 1   
    50    18    25 ar  
    51    18    29 1   
    52    18    30 ar  
    53    20    53 1   
    54    21    22 1   
    55    21    54 1   
    56    21    55 1   
    57    24    25 ar  
    58    24    56 1   
    59    26    29 1   
    60    26    58 1   
    61    29    59 2   
    62    30    57 1   
    63    42    58 1   
    64    43    58 1   
@<TRIPOS>SUBSTRUCTURE
     1 ESQ         1 TEMP              0 ****  ****    0 ROOT
