@<TRIPOS>MOLECULE
ESQ
   60    64     1     0     0
SMALL
No Charge or Current Charge


@<TRIPOS>ATOM
      1 C2           3.0710    -2.3440     1.0630 ca         1 ESQ      -0.066000
      2 C3           4.4190    -2.1190     1.3920 ca         1 ESQ       0.165900
      3 N4           5.0470    -0.9730     1.0660 nb         1 ESQ      -0.240000
      4 C5           4.3110    -0.0530     0.4150 ca         1 ESQ       0.395900
      5 C7           6.3360     1.4870     0.2240 c6         1 ESQ       0.246500
      6 C8           6.5040     3.0230     0.1820 c6         1 ESQ      -0.131900
      7 C11          8.6330     1.3000    -0.8330 c6         1 ESQ       0.157100
      8 C12          7.1640     0.8270    -0.9050 c6         1 ESQ      -0.131900
      9 C14          2.3840    -1.3140     0.3610 cp         1 ESQ       0.242500
     10 C15          0.9490    -1.3990    -0.0630 cp         1 ESQ      -0.168500
     11 C16          0.4310    -2.5610    -0.7080 ca         1 ESQ      -0.054000
     12 C19         -3.2300    -1.3990    -1.2470 c5         1 ESQ       0.142300
     13 C22         -5.7570     0.2760     0.3100 c3         1 ESQ       0.143800
     14 C24         -7.8550     0.7130     1.5540 c6         1 ESQ       0.128800
     15 C25         -9.1990     1.5010     1.5740 c6         1 ESQ       0.153100
     16 C27         -9.2300     1.5860    -0.8330 c6         1 ESQ       0.153100
     17 C28         -7.8840     0.8030    -0.9050 c6         1 ESQ       0.128800
     18 C31         -1.2610    -0.4040    -0.2790 ca         1 ESQ      -0.171600
     19 Cl1          2.3050    -3.8460     1.5880 cl         1 ESQ      -0.175000
     20 N6           4.9120     1.1510     0.0720 nu         1 ESQ      -0.912100
     21 C9           8.0040     3.3950     0.2070 c6         1 ESQ       0.157100
     22 O10          8.6860     2.7420    -0.8860 os         1 ESQ      -0.448000
     23 N13          3.0220    -0.1640     0.0610 nb         1 ESQ      -0.251000
     24 C17         -0.9160    -2.6380    -1.1180 ca         1 ESQ      -0.107000
     25 C18         -1.7560    -1.5400    -0.8900 ca         1 ESQ      -0.071300
     26 N20         -3.4820    -0.0140    -0.7390 n          1 ESQ      -0.421800
     27 N23         -7.0520     1.0090     0.3260 n3         1 ESQ      -0.719600
     28 O26         -9.9560     1.2340     0.3690 os         1 ESQ      -0.450000
     29 C29         -2.3460     0.5850    -0.1730 c          1 ESQ       0.580600
     30 C32          0.0730    -0.2970     0.1390 ca         1 ESQ       0.005000
     31 H33          5.0030    -2.8610     1.9340 h4         1 ESQ       0.034100
     32 H35          6.7140     1.1360     1.1990 h1         1 ESQ       0.079700
     33 H37          6.0450     3.4350    -0.7270 hc         1 ESQ       0.058950
     34 H36          5.9920     3.4850     1.0370 hc         1 ESQ       0.058950
     35 H40          9.1050     0.9510     0.0980 h1         1 ESQ       0.048200
     36 H41          9.2030     0.8900    -1.6800 h1         1 ESQ       0.048200
     37 H42          7.1240    -0.2670    -0.8200 hc         1 ESQ       0.058950
     38 H43          6.7450     1.0860    -1.8860 hc         1 ESQ       0.058950
     39 H44          1.0850    -3.4070    -0.9070 ha         1 ESQ       0.125000
     40 H46         -3.3960    -1.4750    -2.3300 h1         1 ESQ       0.061700
     41 H47         -3.8480    -2.1440    -0.7290 h1         1 ESQ       0.061700
     42 H48         -5.2280     0.4710    -1.7900 h1         1 ESQ       0.062700
     43 H49         -4.6120     1.7750    -0.7640 h1         1 ESQ       0.062700
     44 H50         -5.9410    -0.8040     0.2280 h1         1 ESQ       0.041700
     45 H51         -5.2400     0.4380     1.2660 h1         1 ESQ       0.041700
     46 H53         -8.0790    -0.3630     1.6130 h1         1 ESQ       0.040450
     47 H54         -9.7950     1.2030     2.4480 h1         1 ESQ       0.051200
     48 H55         -9.0000     2.5800     1.6460 h1         1 ESQ       0.051200
     49 H57         -9.0350     2.6680    -0.8350 h1         1 ESQ       0.051200
     50 H56         -9.8490     1.3480    -1.7100 h1         1 ESQ       0.051200
     51 H59         -8.1060    -0.2660    -1.0410 h1         1 ESQ       0.040450
     52 H58         -7.3430     1.1370    -1.8020 h1         1 ESQ       0.040450
     53 H34          4.3090     1.8080    -0.4230 hn         1 ESQ       0.507000
     54 H39          8.1240     4.4830     0.1050 h1         1 ESQ       0.048200
     55 H38          8.4610     3.0880     1.1590 h1         1 ESQ       0.048200
     56 H45         -1.2940    -3.5320    -1.6090 ha         1 ESQ       0.123000
     57 H60          0.4230     0.6150     0.6190 ha         1 ESQ       0.148000
     58 C21         -4.7770     0.6910    -0.8150 c3         1 ESQ       0.115000
     59 O30         -2.2760     1.7040     0.3150 o          1 ESQ      -0.538000
     60 H52         -7.2820     0.9720     2.4560 h1         1 ESQ       0.040450
@<TRIPOS>BOND
     1     1     2 ar  
     2     1     9 ar  
     3     1    19 1   
     4     2     3 ar  
     5     2    31 1   
     6     3     4 ar  
     7     4    20 1   
     8     4    23 ar  
     9     5     6 1   
    10     5     8 1   
    11     5    20 1   
    12     5    32 1   
    13     6    21 1   
    14     6    33 1   
    15     6    34 1   
    16     7     8 1   
    17     7    22 1   
    18     7    35 1   
    19     7    36 1   
    20     8    37 1   
    21     8    38 1   
    22     9    10 1   
    23     9    23 ar  
    24    10    11 ar  
    25    10    30 ar  
    26    11    24 ar  
    27    11    39 1   
    28    12    25 1   
    29    12    26 1   
    30    12    40 1   
    31    12    41 1   
    32    13    27 1   
    33    13    44 1   
    34    13    45 1   
    35    13    58 1   
    36    14    15 1   
    37    14    27 1   
    38    14    46 1   
    39    14    60 1   
    40    15    28 1   
    41    15    47 1   
    42    15    48 1   
    43    16    17 1   
    44    16    28 1   
    45    16    49 1   
    46    16    50 1   
    47    17    27 1   
    48    17    51 1   
    49    17    52 1   
    50    18    25 ar  
    51    18    29 1   
    52    18    30 ar  
    53    20    53 1   
    54    21    22 1   
    55    21    54 1   
    56    21    55 1   
    57    24    25 ar  
    58    24    56 1   
    59    26    29 1   
    60    26    58 1   
    61    29    59 2   
    62    30    57 1   
    63    42    58 1   
    64    43    58 1   
@<TRIPOS>SUBSTRUCTURE
     1 ESQ         1 TEMP              0 ****  ****    0 ROOT
