@<TRIPOS>MOLECULE
ESR
   46    49     1     0     0
SMALL
bcc


@<TRIPOS>ATOM
      1 C1           0.1790    -0.2130    -4.6410 c          1 ESR       0.577100
      2 C2          -1.0140     0.2330    -3.8420 c6         1 ESR      -0.183400
      3 C3          -0.9410    -0.2190    -2.3790 c6         1 ESR      -0.051700
      4 C4           0.3780     0.2020    -1.7200 c6         1 ESR      -0.054700
      5 C5           1.5510    -0.3430    -2.5340 c6         1 ESR      -0.065400
      6 C6           1.5040     0.0970    -4.0000 c6         1 ESR      -0.185400
      7 C10         -2.1490     0.2930    -1.6060 c6         1 ESR      -0.071400
      8 C11         -2.1110    -0.1530    -0.1530 c6         1 ESR      -0.070400
      9 C12         -0.8110     0.2630     0.5250 c6         1 ESR      -0.042700
     10 C13          0.4160    -0.2540    -0.2540 c6         1 ESR      -0.052700
     11 C16         -0.7140    -0.2590     1.9470 c5         1 ESR      -0.060700
     12 C17          0.5550     0.2150     2.6670 c5         1 ESR      -0.154000
     13 C19          1.7260     0.1270     0.4500 c6         1 ESR      -0.072400
     14 C24         -1.8350    -0.0110     2.9570 c5         1 ESR      -0.066400
     15 C25         -1.1850    -0.4320     4.2820 c5         1 ESR      -0.190400
     16 C26          0.3180    -0.3420     4.0540 c          1 ESR       0.580100
     17 C27          0.6140     1.7410     2.8590 c3         1 ESR      -0.078100
     18 O1           0.0800    -0.7620    -5.7170 o          1 ESR      -0.519100
     19 C18          1.7800    -0.2930     1.9230 c6         1 ESR      -0.050400
     20 O26          1.1680    -0.6670     4.8480 o          1 ESR      -0.511100
     21 H2C1        -1.0390     1.3300    -3.8730 hc         1 ESR       0.065700
     22 H2C2        -1.9330    -0.1230    -4.3130 hc         1 ESR       0.065700
     23 H3          -0.9780    -1.3180    -2.3620 hc         1 ESR       0.052700
     24 H4           0.4310     1.3020    -1.7420 hc         1 ESR       0.048700
     25 H5C1         2.5040    -0.0110    -2.1210 hc         1 ESR       0.047200
     26 H5C2         1.5520    -1.4370    -2.4780 hc         1 ESR       0.047200
     27 H6C1         1.6360     1.1850    -4.0460 hc         1 ESR       0.065700
     28 H6C2         2.3150    -0.3530    -4.5740 hc         1 ESR       0.065700
     29 H101        -2.1720     1.3880    -1.6570 hc         1 ESR       0.042700
     30 H102        -3.0680    -0.0570    -2.0840 hc         1 ESR       0.042700
     31 H111        -2.9640     0.2700     0.3850 hc         1 ESR       0.042200
     32 H112        -2.2200    -1.2430    -0.0980 hc         1 ESR       0.042200
     33 H12         -0.7780     1.3610     0.5300 hc         1 ESR       0.051700
     34 H13          0.3490    -1.3530    -0.2540 hc         1 ESR       0.046700
     35 H16         -0.6210    -1.3540     1.8630 hc         1 ESR       0.047700
     36 H191         1.8760     1.2090     0.3640 hc         1 ESR       0.041200
     37 H192         2.5720    -0.3330    -0.0620 hc         1 ESR       0.041200
     38 H241        -2.1350     1.0400     2.9740 hc         1 ESR       0.049700
     39 H242        -2.7280    -0.5940     2.7330 hc         1 ESR       0.049700
     40 H251        -1.4830     0.1710     5.1420 hc         1 ESR       0.072200
     41 H252        -1.4270    -1.4690     4.5310 hc         1 ESR       0.072200
     42 H271         0.6520     2.2720     1.9090 hc         1 ESR       0.040367
     43 H272        -0.2440     2.1310     3.4090 hc         1 ESR       0.040367
     44 H273         1.5120     2.0080     3.4190 hc         1 ESR       0.040367
     45 H181         2.7010     0.0770     2.3790 hc         1 ESR       0.051200
     46 H182         1.8150    -1.3860     1.9860 hc         1 ESR       0.051200
@<TRIPOS>BOND
     1     1     2 1   
     2     1     6 1   
     3     1    18 2   
     4     2     3 1   
     5     2    21 1   
     6     2    22 1   
     7     3     4 1   
     8     3     7 1   
     9     3    23 1   
    10     4     5 1   
    11     4    10 1   
    12     4    24 1   
    13     5     6 1   
    14     5    25 1   
    15     5    26 1   
    16     6    27 1   
    17     6    28 1   
    18     7     8 1   
    19     7    29 1   
    20     7    30 1   
    21     8     9 1   
    22     8    31 1   
    23     8    32 1   
    24     9    10 1   
    25     9    11 1   
    26     9    33 1   
    27    10    13 1   
    28    10    34 1   
    29    11    12 1   
    30    11    14 1   
    31    11    35 1   
    32    12    16 1   
    33    12    17 1   
    34    12    19 1   
    35    13    19 1   
    36    13    36 1   
    37    13    37 1   
    38    14    15 1   
    39    14    38 1   
    40    14    39 1   
    41    15    16 1   
    42    15    40 1   
    43    15    41 1   
    44    16    20 2   
    45    17    42 1   
    46    17    43 1   
    47    17    44 1   
    48    19    45 1   
    49    19    46 1   
@<TRIPOS>SUBSTRUCTURE
     1 ESR         1 TEMP              0 ****  ****    0 ROOT
