@<TRIPOS>MOLECULE
ESR
   46    49     1     0     0
SMALL
No Charge or Current Charge


@<TRIPOS>ATOM
      1 C1           0.1810    -0.1430    -4.7190 c          1 ESR       0.577100
      2 C2          -1.0550     0.2350    -3.8990 c6         1 ESR      -0.183400
      3 C3          -0.9500    -0.2630    -2.4310 c6         1 ESR      -0.051700
      4 C4           0.3840     0.2030    -1.7530 c6         1 ESR      -0.054700
      5 C5           1.6060    -0.2720    -2.6020 c6         1 ESR      -0.065400
      6 C6           1.5260     0.2020    -4.0750 c6         1 ESR      -0.185400
      7 C10         -2.1880     0.2000    -1.6200 c6         1 ESR      -0.071400
      8 C11         -2.1210    -0.2980    -0.1610 c6         1 ESR      -0.070400
      9 C12         -0.8190     0.1860     0.5280 c6         1 ESR      -0.042700
     10 C13          0.4450    -0.3050    -0.2670 c6         1 ESR      -0.052700
     11 C16         -0.7280    -0.3090     1.9960 c5         1 ESR      -0.060700
     12 C17          0.5460     0.2000     2.7370 c5         1 ESR      -0.154000
     13 C19          1.7680     0.1070     0.4690 c6         1 ESR      -0.072400
     14 C24         -1.8790     0.0280     2.9920 c5         1 ESR      -0.066400
     15 C25         -1.2010    -0.2080     4.3870 c5         1 ESR      -0.190400
     16 C26          0.2970    -0.4520     4.1140 c          1 ESR       0.580100
     17 C27          0.6620     1.7550     2.9120 c3         1 ESR      -0.078100
     18 O1           0.1010    -0.7240    -5.7930 o          1 ESR      -0.519100
     19 C18          1.7960    -0.3190     1.9680 c6         1 ESR      -0.050400
     20 O26          1.0190    -1.2490     4.7000 o          1 ESR      -0.511100
     21 H2C1        -1.0610     1.3320    -3.8430 hc         1 ESR       0.065700
     22 H2C2        -1.9680    -0.1110    -4.4020 hc         1 ESR       0.065700
     23 H3          -0.9560    -1.3630    -2.4520 hc         1 ESR       0.052700
     24 H4           0.3950     1.3030    -1.7330 hc         1 ESR       0.048700
     25 H5C1         2.5440     0.1080    -2.1780 hc         1 ESR       0.047200
     26 H5C2         1.6730    -1.3690    -2.5740 hc         1 ESR       0.047200
     27 H6C1         1.5730     1.2990    -4.0290 hc         1 ESR       0.065700
     28 H6C2         2.3570    -0.1720    -4.6860 hc         1 ESR       0.065700
     29 H101        -2.2580     1.2970    -1.6320 hc         1 ESR       0.042700
     30 H102        -3.1070    -0.1750    -2.0920 hc         1 ESR       0.042700
     31 H111        -3.0000     0.0720     0.3850 hc         1 ESR       0.042200
     32 H112        -2.1770    -1.3950    -0.1390 hc         1 ESR       0.042200
     33 H12         -0.8320     1.2850     0.5290 hc         1 ESR       0.051700
     34 H13          0.4200    -1.4040    -0.2910 hc         1 ESR       0.046700
     35 H16         -0.6790    -1.4030     1.9050 hc         1 ESR       0.047700
     36 H191         1.9270     1.1900     0.3760 hc         1 ESR       0.041200
     37 H192         2.6310    -0.3640    -0.0180 hc         1 ESR       0.041200
     38 H241        -2.2210     1.0630     2.8800 hc         1 ESR       0.049700
     39 H242        -2.7540    -0.6160     2.8440 hc         1 ESR       0.049700
     40 H251        -1.2910     0.7110     4.9740 hc         1 ESR       0.072200
     41 H252        -1.6220    -1.0350     4.9680 hc         1 ESR       0.072200
     42 H271         0.7220     2.2820     1.9540 hc         1 ESR       0.040367
     43 H272        -0.1870     2.1890     3.4510 hc         1 ESR       0.040367
     44 H273         1.5630     2.0150     3.4800 hc         1 ESR       0.040367
     45 H181         2.7190     0.0400     2.4460 hc         1 ESR       0.051200
     46 H182         1.8330    -1.4160     2.0210 hc         1 ESR       0.051200
@<TRIPOS>BOND
     1     1     2 1   
     2     1     6 1   
     3     1    18 2   
     4     2     3 1   
     5     2    21 1   
     6     2    22 1   
     7     3     4 1   
     8     3     7 1   
     9     3    23 1   
    10     4     5 1   
    11     4    10 1   
    12     4    24 1   
    13     5     6 1   
    14     5    25 1   
    15     5    26 1   
    16     6    27 1   
    17     6    28 1   
    18     7     8 1   
    19     7    29 1   
    20     7    30 1   
    21     8     9 1   
    22     8    31 1   
    23     8    32 1   
    24     9    10 1   
    25     9    11 1   
    26     9    33 1   
    27    10    13 1   
    28    10    34 1   
    29    11    12 1   
    30    11    14 1   
    31    11    35 1   
    32    12    16 1   
    33    12    17 1   
    34    12    19 1   
    35    13    19 1   
    36    13    36 1   
    37    13    37 1   
    38    14    15 1   
    39    14    38 1   
    40    14    39 1   
    41    15    16 1   
    42    15    40 1   
    43    15    41 1   
    44    16    20 2   
    45    17    42 1   
    46    17    43 1   
    47    17    44 1   
    48    19    45 1   
    49    19    46 1   
@<TRIPOS>SUBSTRUCTURE
     1 ESR         1 TEMP              0 ****  ****    0 ROOT
