@<TRIPOS>MOLECULE
EST
   44    47     1     0     0
SMALL
abcg2


@<TRIPOS>ATOM
      1 C1          13.0040     8.8400    -8.0490 ca         1 EST      -0.074000
      2 C2          12.7240     9.9060    -8.8860 ca         1 EST      -0.146000
      3 C3          12.4980     9.6710   -10.2390 ca         1 EST       0.137100
      4 O3          12.2300    10.7320   -11.0310 oh         1 EST      -0.535100
      5 C4          12.5640     8.3690   -10.7150 ca         1 EST      -0.208000
      6 C5          12.8470     7.2980    -9.8690 ca         1 EST      -0.031300
      7 C6          12.8920     5.9150   -10.4670 c6         1 EST      -0.033100
      8 C7          13.5620     4.8920    -9.5640 c6         1 EST      -0.069400
      9 C8          13.0220     5.0180    -8.1480 c6         1 EST      -0.045700
     10 C9          13.4220     6.3830    -7.5660 c6         1 EST      -0.005400
     11 C10         13.0650     7.5210    -8.5050 ca         1 EST      -0.099300
     12 C11         12.8790     6.5550    -6.1410 c6         1 EST      -0.069400
     13 C12         13.3020     5.4100    -5.2160 c6         1 EST      -0.060400
     14 C13         12.9260     4.0480    -5.7940 c5         1 EST      -0.038000
     15 C14         13.5190     3.9370    -7.2060 c5         1 EST      -0.065700
     16 C15         13.3310     2.4630    -7.5700 c5         1 EST      -0.065400
     17 C16         13.4920     1.7310    -6.2170 c5         1 EST      -0.116400
     18 C17         13.6140     2.8420    -5.1490 c5         1 EST       0.171300
     19 O17         13.0640     2.5230    -3.8940 oh         1 EST      -0.651000
     20 C18         11.4040     3.8630    -5.7650 c3         1 EST      -0.073100
     21 H1          13.1870     9.0560    -7.0040 ha         1 EST       0.113000
     22 H2          12.6860    10.9150    -8.4950 ha         1 EST       0.127000
     23 HO3         12.1030    10.4450   -11.9420 ho         1 EST       0.462000
     24 H4          12.4000     8.1740   -11.7710 ha         1 EST       0.108000
     25 H61         11.8660     5.5900   -10.6700 hc         1 EST       0.048200
     26 H62         13.3880     5.9540   -11.4400 hc         1 EST       0.048200
     27 H71         13.3840     3.8890    -9.9590 hc         1 EST       0.043200
     28 H72         14.6480     5.0380    -9.5590 hc         1 EST       0.043200
     29 H8          11.9260     4.9700    -8.2090 hc         1 EST       0.057700
     30 H9          14.5190     6.3690    -7.4810 hc         1 EST       0.050700
     31 H111        13.2420     7.4890    -5.7050 hc         1 EST       0.043200
     32 H112        11.7890     6.6430    -6.1730 hc         1 EST       0.043200
     33 H121        14.3890     5.4520    -5.0780 hc         1 EST       0.044200
     34 H122        12.8580     5.5560    -4.2260 hc         1 EST       0.044200
     35 H14         14.6030     4.0960    -7.0950 hc         1 EST       0.043700
     36 H151        12.3380     2.2890    -7.9930 hc         1 EST       0.044200
     37 H152        14.0530     2.1280    -8.3140 hc         1 EST       0.044200
     38 H161        12.6270     1.1000    -6.0020 hc         1 EST       0.046200
     39 H162        14.3660     1.0770    -6.2070 hc         1 EST       0.046200
     40 H17         14.6790     3.0960    -5.0340 h1         1 EST       0.026700
     41 HO7         13.5410     1.7670    -3.5390 ho         1 EST       0.441000
     42 H181        11.0870     2.9010    -6.1710 hc         1 EST       0.036700
     43 H182        11.0330     3.9230    -4.7420 hc         1 EST       0.036700
     44 H183        10.8860     4.6320    -6.3370 hc         1 EST       0.036700
@<TRIPOS>BOND
     1     1     2 ar  
     2     1    11 ar  
     3     1    21 1   
     4     2     3 ar  
     5     2    22 1   
     6     3     4 1   
     7     3     5 ar  
     8     4    23 1   
     9     5     6 ar  
    10     5    24 1   
    11     6     7 1   
    12     6    11 ar  
    13     7     8 1   
    14     7    25 1   
    15     7    26 1   
    16     8     9 1   
    17     8    27 1   
    18     8    28 1   
    19     9    10 1   
    20     9    15 1   
    21     9    29 1   
    22    10    11 1   
    23    10    12 1   
    24    10    30 1   
    25    12    13 1   
    26    12    31 1   
    27    12    32 1   
    28    13    14 1   
    29    13    33 1   
    30    13    34 1   
    31    14    15 1   
    32    14    18 1   
    33    14    20 1   
    34    15    16 1   
    35    15    35 1   
    36    16    17 1   
    37    16    36 1   
    38    16    37 1   
    39    17    18 1   
    40    17    38 1   
    41    17    39 1   
    42    18    19 1   
    43    18    40 1   
    44    19    41 1   
    45    20    42 1   
    46    20    43 1   
    47    20    44 1   
@<TRIPOS>SUBSTRUCTURE
     1 EST         1 TEMP              0 ****  ****    0 ROOT
