@<TRIPOS>MOLECULE
EST
   44    47     1     0     0
SMALL
No Charge or Current Charge


@<TRIPOS>ATOM
      1 C1          12.9600     8.9150    -8.0420 ca         1 EST      -0.074000
      2 C2          12.6440     9.9670    -8.9170 ca         1 EST      -0.146000
      3 C3          12.4440     9.7130   -10.2780 ca         1 EST       0.137100
      4 O3          12.1370    10.7380   -11.1220 oh         1 EST      -0.535100
      5 C4          12.5680     8.4090   -10.7700 ca         1 EST      -0.208000
      6 C5          12.8890     7.3440    -9.9050 ca         1 EST      -0.031300
      7 C6          13.0080     5.9400   -10.5120 c6         1 EST      -0.033100
      8 C7          13.6440     4.8960    -9.5720 c6         1 EST      -0.069400
      9 C8          13.0530     5.0330    -8.1520 c6         1 EST      -0.045700
     10 C9          13.4450     6.4260    -7.5560 c6         1 EST      -0.005400
     11 C10         13.0700     7.5860    -8.5160 ca         1 EST      -0.099300
     12 C11         12.8970     6.5810    -6.0940 c6         1 EST      -0.069400
     13 C12         13.3130     5.3960    -5.1680 c6         1 EST      -0.060400
     14 C13         12.9120     4.0180    -5.7680 c5         1 EST      -0.038000
     15 C14         13.5300     3.9050    -7.1940 c5         1 EST      -0.065700
     16 C15         13.2290     2.4260    -7.5670 c5         1 EST      -0.065400
     17 C16         13.4330     1.6680    -6.2080 c5         1 EST      -0.116400
     18 C17         13.6630     2.7940    -5.1420 c5         1 EST       0.171300
     19 O17         13.1740     2.4230    -3.8540 oh         1 EST      -0.651000
     20 C18         11.3470     3.8810    -5.6920 c3         1 EST      -0.073100
     21 H1          13.1250     9.1550    -6.9970 ha         1 EST       0.113000
     22 H2          12.5590    10.9820    -8.5370 ha         1 EST       0.127000
     23 HO3         12.0380    10.3710   -12.0260 ho         1 EST       0.462000
     24 H4          12.4190     8.2120   -11.8290 ha         1 EST       0.108000
     25 H61         12.0030     5.5980   -10.7960 hc         1 EST       0.048200
     26 H62         13.5870     5.9840   -11.4460 hc         1 EST       0.048200
     27 H71         13.4660     3.8910    -9.9760 hc         1 EST       0.043200
     28 H72         14.7340     5.0350    -9.5410 hc         1 EST       0.043200
     29 H8          11.9590     4.9790    -8.2410 hc         1 EST       0.057700
     30 H9          14.5410     6.4480    -7.4770 hc         1 EST       0.050700
     31 H111        13.2880     7.4970    -5.6360 hc         1 EST       0.043200
     32 H112        11.8060     6.6930    -6.1120 hc         1 EST       0.043200
     33 H121        14.4010     5.4290    -5.0200 hc         1 EST       0.044200
     34 H122        12.8690     5.5230    -4.1700 hc         1 EST       0.044200
     35 H14         14.6200     4.0380    -7.1490 hc         1 EST       0.043700
     36 H151        12.2100     2.3000    -7.9490 hc         1 EST       0.044200
     37 H152        13.9060     2.0550    -8.3450 hc         1 EST       0.044200
     38 H161        12.5560     1.0540    -5.9740 hc         1 EST       0.046200
     39 H162        14.2910     0.9870    -6.2490 hc         1 EST       0.046200
     40 H17         14.7380     3.0140    -5.0700 h1         1 EST       0.026700
     41 HO7         13.6750     1.6240    -3.5830 ho         1 EST       0.441000
     42 H181        10.9850     2.9060    -6.0370 hc         1 EST       0.036700
     43 H182        10.9950     3.9960    -4.6600 hc         1 EST       0.036700
     44 H183        10.8280     4.6370    -6.2900 hc         1 EST       0.036700
@<TRIPOS>BOND
     1     1     2 ar  
     2     1    11 ar  
     3     1    21 1   
     4     2     3 ar  
     5     2    22 1   
     6     3     4 1   
     7     3     5 ar  
     8     4    23 1   
     9     5     6 ar  
    10     5    24 1   
    11     6     7 1   
    12     6    11 ar  
    13     7     8 1   
    14     7    25 1   
    15     7    26 1   
    16     8     9 1   
    17     8    27 1   
    18     8    28 1   
    19     9    10 1   
    20     9    15 1   
    21     9    29 1   
    22    10    11 1   
    23    10    12 1   
    24    10    30 1   
    25    12    13 1   
    26    12    31 1   
    27    12    32 1   
    28    13    14 1   
    29    13    33 1   
    30    13    34 1   
    31    14    15 1   
    32    14    18 1   
    33    14    20 1   
    34    15    16 1   
    35    15    35 1   
    36    16    17 1   
    37    16    36 1   
    38    16    37 1   
    39    17    18 1   
    40    17    38 1   
    41    17    39 1   
    42    18    19 1   
    43    18    40 1   
    44    19    41 1   
    45    20    42 1   
    46    20    43 1   
    47    20    44 1   
@<TRIPOS>SUBSTRUCTURE
     1 EST         1 TEMP              0 ****  ****    0 ROOT
