@<TRIPOS>MOLECULE
ESV
   34    34     1     0     0
SMALL
No Charge or Current Charge


@<TRIPOS>ATOM
      1 C10        140.9010   130.5280   114.4680 c3         1 ESV      -0.085100
      2 C13        134.5820   132.3290   114.2860 ca         1 ESV      -0.095000
      3 C15        133.5470   131.5220   113.7780 ca         1 ESV      -0.138000
      4 C17        138.6020   135.0310   115.2370 c1         1 ESV       0.450800
      5 C6         140.0690   132.3510   112.7400 c3         1 ESV       0.183200
      6 C7         141.1450   131.8960   113.7820 c3         1 ESV      -0.086400
      7 C8         140.0720   131.3960   111.5190 c3         1 ESV      -0.090600
      8 C9         140.3670   133.7870   112.2320 c3         1 ESV      -0.090600
      9 C11        138.1830   132.9380   114.2490 c2         1 ESV       0.872100
     10 C12        135.9090   131.8760   114.1870 ca         1 ESV       0.237000
     11 C14        136.1240   130.6020   113.5820 ca         1 ESV       0.307900
     12 C16        133.8590   130.2830   113.1920 ca         1 ESV       0.318900
     13 N1         138.6980   132.2760   113.2930 n2         1 ESV      -0.712900
     14 N2         136.9420   132.6790   114.7060 nu         1 ESV      -0.923200
     15 N3         138.8320   133.7320   115.1080 nu         1 ESV      -0.776000
     16 N4         135.1260   129.8170   113.0940 nb         1 ESV      -0.648000
     17 N5         138.4120   136.1630   115.3980 n1         1 ESV      -0.486000
     18 H1         141.7040   130.3190   115.1850 hc         1 ESV       0.037367
     19 H2         139.9510   130.5200   115.0150 hc         1 ESV       0.037367
     20 H3         140.8880   129.7120   113.7360 hc         1 ESV       0.037367
     21 H5         132.5120   131.8480   113.8350 ha         1 ESV       0.127000
     22 H6         142.1190   131.8510   113.2770 hc         1 ESV       0.035700
     23 H7         141.2650   132.6560   114.5610 hc         1 ESV       0.035700
     24 H8         141.0680   131.3470   111.0620 hc         1 ESV       0.041533
     25 H9         139.7780   130.3780   111.8010 hc         1 ESV       0.041533
     26 H10        139.3680   131.7410   110.7510 hc         1 ESV       0.041533
     27 H11        140.4580   134.5050   113.0540 hc         1 ESV       0.041533
     28 H12        141.3130   133.8090   111.6780 hc         1 ESV       0.041533
     29 H13        139.5750   134.1380   111.5580 hc         1 ESV       0.041533
     30 H14        137.1260   130.1840   113.5030 h4         1 ESV       0.023100
     31 H15        133.0730   129.6430   112.7940 h4         1 ESV       0.022100
     32 H16        136.6690   133.3560   115.4070 hn         1 ESV       0.506000
     33 H17        139.7950   133.4500   115.1790 hn         1 ESV       0.523000
     34 H4         134.3550   133.2900   114.7420 ha         1 ESV       0.127000
@<TRIPOS>BOND
     1     1     6 1   
     2     1    18 1   
     3     1    19 1   
     4     1    20 1   
     5     2     3 ar  
     6     2    10 ar  
     7     2    34 1   
     8     3    12 ar  
     9     3    21 1   
    10     4    15 1   
    11     4    17 3   
    12     5     6 1   
    13     5     7 1   
    14     5     8 1   
    15     5    13 1   
    16     6    22 1   
    17     6    23 1   
    18     7    24 1   
    19     7    25 1   
    20     7    26 1   
    21     8    27 1   
    22     8    28 1   
    23     8    29 1   
    24     9    13 2   
    25     9    14 1   
    26     9    15 1   
    27    10    11 ar  
    28    10    14 1   
    29    11    16 ar  
    30    11    30 1   
    31    12    16 ar  
    32    12    31 1   
    33    14    32 1   
    34    15    33 1   
@<TRIPOS>SUBSTRUCTURE
     1 ESV         1 TEMP              0 ****  ****    0 ROOT
