@<TRIPOS>MOLECULE
ESV
   34    34     1     0     0
SMALL
bcc


@<TRIPOS>ATOM
      1 C10        140.6230   130.1490   113.2760 c3         1 ESV      -0.085100
      2 C13        134.4640   132.4330   113.9050 ca         1 ESV      -0.113000
      3 C15        133.5150   131.7610   114.6530 ca         1 ESV      -0.221300
      4 C17        137.6330   133.6310   115.5460 c1         1 ESV       0.361600
      5 C6         140.3750   132.6220   112.5330 c3         1 ESV       0.183200
      6 C7         141.0770   131.5910   113.4430 c3         1 ESV      -0.086400
      7 C8         140.8590   132.4310   111.0920 c3         1 ESV      -0.090600
      8 C9         140.7560   134.0410   112.9740 c3         1 ESV      -0.090600
      9 C11        138.1070   132.6280   113.4170 c2         1 ESV       0.872100
     10 C12        135.7820   131.9900   113.9360 ca         1 ESV       0.033300
     11 C14        136.0770   130.8790   114.7260 ca         1 ESV       0.373200
     12 C16        133.9170   130.6830   115.4290 ca         1 ESV       0.384200
     13 N1         138.9280   132.4350   112.4850 n2         1 ESV      -0.712900
     14 N2         136.7500   132.6520   113.1680 nu         1 ESV      -0.729600
     15 N3         138.4060   132.8890   114.7710 nu         1 ESV      -0.720800
     16 N4         135.1720   130.2520   115.4630 nb         1 ESV      -0.648000
     17 N5         136.9660   134.2780   116.2340 n1         1 ESV      -0.396800
     18 H1         141.2140   129.4920   113.9140 hc         1 ESV       0.037367
     19 H2         139.5770   130.0160   113.5540 hc         1 ESV       0.037367
     20 H3         140.7390   129.7990   112.2500 hc         1 ESV       0.037367
     21 H5         132.4800   132.0760   114.6490 ha         1 ESV       0.145000
     22 H6         142.1490   131.6630   113.2390 hc         1 ESV       0.035700
     23 H7         140.9820   131.8780   114.4960 hc         1 ESV       0.035700
     24 H8         141.9390   132.5630   111.0240 hc         1 ESV       0.041533
     25 H9         140.6130   131.4390   110.7140 hc         1 ESV       0.041533
     26 H10        140.3870   133.1620   110.4340 hc         1 ESV       0.041533
     27 H11        140.4840   134.2520   114.0080 hc         1 ESV       0.041533
     28 H12        141.8350   134.1750   112.8870 hc         1 ESV       0.041533
     29 H13        140.2740   134.7840   112.3380 hc         1 ESV       0.041533
     30 H14        137.0860   130.4780   114.7580 h4         1 ESV       0.023100
     31 H15        133.2000   130.1440   116.0360 h4         1 ESV       0.022100
     32 H16        136.5260   132.7800   112.1910 hn         1 ESV       0.450800
     33 H17        139.3020   132.6120   115.1460 hn         1 ESV       0.467800
     34 H4         134.1920   133.2910   113.3030 ha         1 ESV       0.145000
@<TRIPOS>BOND
     1     1     6 1   
     2     1    18 1   
     3     1    19 1   
     4     1    20 1   
     5     2     3 ar  
     6     2    10 ar  
     7     2    34 1   
     8     3    12 ar  
     9     3    21 1   
    10     4    15 1   
    11     4    17 3   
    12     5     6 1   
    13     5     7 1   
    14     5     8 1   
    15     5    13 1   
    16     6    22 1   
    17     6    23 1   
    18     7    24 1   
    19     7    25 1   
    20     7    26 1   
    21     8    27 1   
    22     8    28 1   
    23     8    29 1   
    24     9    13 2   
    25     9    14 1   
    26     9    15 1   
    27    10    11 ar  
    28    10    14 1   
    29    11    16 ar  
    30    11    30 1   
    31    12    16 ar  
    32    12    31 1   
    33    14    32 1   
    34    15    33 1   
@<TRIPOS>SUBSTRUCTURE
     1 ESV         1 TEMP              0 ****  ****    0 ROOT
