@<TRIPOS>MOLECULE
ESW
   67    71     1     0     0
SMALL
bcc


@<TRIPOS>ATOM
      1 C1           6.0230     2.6740     0.9800 c3         1 ESW      -0.102100
      2 C2           6.5090     1.2330     0.8330 c3         1 ESW       0.189700
      3 C3           6.5800     0.5740     2.2180 c3         1 ESW      -0.102100
      4 N4           5.6120     0.4890    -0.0630 ns         1 ESW      -0.578900
      5 C5           4.3270     0.1720     0.1540 c          1 ESW       0.645100
      6 C7           3.6870    -0.5700    -1.0220 c3         1 ESW       0.023000
      7 C10          0.6350    -2.2170     0.1850 ca         1 ESW      -0.062300
      8 C11         -0.2160    -3.1200     0.7950 ca         1 ESW      -0.127000
      9 C12         -1.5830    -2.8850     0.7240 ca         1 ESW      -0.071000
     10 C13         -2.0990    -1.7630     0.0660 cp         1 ESW      -0.170500
     11 C14         -1.2300    -0.8410    -0.5120 ca         1 ESW      -0.011000
     12 C15          0.1260    -1.0970    -0.4510 ca         1 ESW      -0.168600
     13 C16          1.2500    -0.3080    -0.9980 c          1 ESW       0.733100
     14 O17          1.1980     0.7550    -1.5910 o          1 ESW      -0.612500
     15 C22         -6.9370     1.8150     0.3360 c6         1 ESW       0.245500
     16 C23         -7.1270     3.0150     1.2550 c6         1 ESW      -0.132400
     17 C24         -8.5120     3.6110     1.0470 c6         1 ESW       0.134400
     18 C26         -8.6360     2.8660    -1.1680 c6         1 ESW       0.134400
     19 C27         -7.2610     2.2190    -1.1020 c6         1 ESW      -0.132400
     20 C35         10.4550     0.8560    -0.9190 ca         1 ESW      -0.122000
     21 C36          9.9460     2.1130    -0.6350 ca         1 ESW      -0.130000
     22 C37          8.6770     2.2510    -0.0820 ca         1 ESW      -0.119500
     23 O6           3.6950     0.4200     1.1660 o          1 ESW      -0.592100
     24 N8           2.3690    -1.0200    -0.7200 n          1 ESW      -0.467800
     25 C9           2.1250    -2.2120     0.0660 c5         1 ESW       0.143300
     26 C18         -3.5540    -1.5080    -0.0040 cp         1 ESW       0.572800
     27 N19         -3.9430    -0.2720     0.2610 nb         1 ESW      -0.775000
     28 C20         -5.2480     0.0190     0.1920 ca         1 ESW       0.920900
     29 N21         -5.5990     1.2830     0.4790 nu         1 ESW      -0.856900
     30 O25         -8.7410     3.9710    -0.2970 os         1 ESW      -0.401600
     31 N28         -6.2120    -0.8550    -0.1180 nb         1 ESW      -0.767000
     32 C29         -5.8230    -2.0820    -0.3960 ca         1 ESW       0.493200
     33 C30         -4.4950    -2.4760    -0.3640 ca         1 ESW      -0.288200
     34 CL1         -4.0830    -4.0830    -0.8430 cl         1 ESW      -0.084400
     35 C32          7.8960     1.1350     0.1990 ca         1 ESW      -0.102300
     36 C33          8.4210    -0.1270    -0.0910 ca         1 ESW      -0.119500
     37 C34          9.6840    -0.2680    -0.6440 ca         1 ESW      -0.130000
     38 H39          5.9800     3.1860     0.0180 hc         1 ESW       0.049367
     39 H38          5.0240     2.6840     1.4130 hc         1 ESW       0.049367
     40 H40          6.6740     3.2420     1.6450 hc         1 ESW       0.049367
     41 H41          5.6360     0.6550     2.7510 hc         1 ESW       0.049367
     42 H43          6.8420    -0.4810     2.1400 hc         1 ESW       0.049367
     43 H42          7.3490     1.0680     2.8130 hc         1 ESW       0.049367
     44 H44          5.9740     0.2940    -0.9850 hn         1 ESW       0.312500
     45 H45          3.6540     0.0940    -1.8890 h1         1 ESW       0.072200
     46 H46          4.3080    -1.4240    -1.3060 h1         1 ESW       0.072200
     47 H49          0.1600    -3.9910     1.3150 ha         1 ESW       0.141000
     48 H50         -2.2540    -3.5810     1.2090 ha         1 ESW       0.143000
     49 H51         -1.6100     0.0420    -1.0100 ha         1 ESW       0.164000
     50 H53         -7.6370     1.0330     0.6410 h1         1 ESW       0.080700
     51 H54         -7.0170     2.7180     2.3010 hc         1 ESW       0.058700
     52 H55         -6.3620     3.7710     1.0490 hc         1 ESW       0.058700
     53 H56         -9.2690     2.8870     1.3830 h1         1 ESW       0.047950
     54 H57         -8.6340     4.5140     1.6470 h1         1 ESW       0.047950
     55 H59         -8.8390     3.2320    -2.1750 h1         1 ESW       0.047950
     56 H58         -9.4070     2.1170    -0.9320 h1         1 ESW       0.047950
     57 H60         -6.5040     2.9220    -1.4640 hc         1 ESW       0.058700
     58 H61         -7.2380     1.3470    -1.7580 hc         1 ESW       0.058700
     59 H65         11.4410     0.7480    -1.3520 ha         1 ESW       0.133000
     60 H66         10.5330     2.9980    -0.8440 ha         1 ESW       0.132500
     61 H67          8.3110     3.2470     0.1230 ha         1 ESW       0.134000
     62 H47          2.6110    -2.1530     1.0430 h1         1 ESW       0.067200
     63 H48          2.5020    -3.1040    -0.4400 h1         1 ESW       0.067200
     64 H52         -4.8400     1.9350     0.6090 hn         1 ESW       0.451800
     65 H62         -6.5940    -2.7950    -0.6680 h4         1 ESW       0.033100
     66 H63          7.8400    -1.0180     0.1180 ha         1 ESW       0.134000
     67 H64         10.0680    -1.2560    -0.8590 ha         1 ESW       0.132500
@<TRIPOS>BOND
     1     1     2 1   
     2     1    38 1   
     3     1    39 1   
     4     1    40 1   
     5     2     3 1   
     6     2     4 1   
     7     2    35 1   
     8     3    41 1   
     9     3    42 1   
    10     3    43 1   
    11     4     5 1   
    12     4    44 1   
    13     5     6 1   
    14     5    23 2   
    15     6    24 1   
    16     6    45 1   
    17     6    46 1   
    18     7     8 ar  
    19     7    12 ar  
    20     7    25 1   
    21     8     9 ar  
    22     8    47 1   
    23     9    10 ar  
    24     9    48 1   
    25    10    11 ar  
    26    10    26 1   
    27    11    12 ar  
    28    11    49 1   
    29    12    13 1   
    30    13    14 2   
    31    13    24 1   
    32    15    16 1   
    33    15    19 1   
    34    15    29 1   
    35    15    50 1   
    36    16    17 1   
    37    16    51 1   
    38    16    52 1   
    39    17    30 1   
    40    17    53 1   
    41    17    54 1   
    42    18    19 1   
    43    18    30 1   
    44    18    55 1   
    45    18    56 1   
    46    19    57 1   
    47    19    58 1   
    48    20    21 ar  
    49    20    37 ar  
    50    20    59 1   
    51    21    22 ar  
    52    21    60 1   
    53    22    35 ar  
    54    22    61 1   
    55    24    25 1   
    56    25    62 1   
    57    25    63 1   
    58    26    27 ar  
    59    26    33 ar  
    60    27    28 ar  
    61    28    29 1   
    62    28    31 ar  
    63    29    64 1   
    64    31    32 ar  
    65    32    33 ar  
    66    32    65 1   
    67    33    34 1   
    68    35    36 ar  
    69    36    37 ar  
    70    36    66 1   
    71    37    67 1   
@<TRIPOS>SUBSTRUCTURE
     1 ESW         1 TEMP              0 ****  ****    0 ROOT
