@<TRIPOS>MOLECULE
ESW
   67    71     1     0     0
SMALL
No Charge or Current Charge


@<TRIPOS>ATOM
      1 C1           5.7880     2.7130     0.9190 c3         1 ESW      -0.102100
      2 C2           6.4810     1.3240     0.8610 c3         1 ESW       0.189700
      3 C3           6.6750     0.7920     2.3060 c3         1 ESW      -0.102100
      4 N4           5.6520     0.4060     0.0670 ns         1 ESW      -0.511900
      5 C5           4.3740    -0.0420     0.3500 c          1 ESW       0.578100
      6 C7           3.8030    -1.0050    -0.7140 c3         1 ESW       0.023000
      7 C10          0.5280    -2.6330     0.1840 ca         1 ESW      -0.062300
      8 C11         -0.4180    -3.5400     0.6790 ca         1 ESW      -0.109000
      9 C12         -1.7880    -3.2240     0.5690 ca         1 ESW      -0.053000
     10 C13         -2.2260    -2.0100    -0.0390 cp         1 ESW      -0.170500
     11 C14         -1.2390    -1.1040    -0.5170 ca         1 ESW       0.007000
     12 C15          0.1140    -1.4480    -0.3940 ca         1 ESW      -0.168600
     13 C16          1.3040    -0.6890    -0.8130 c          1 ESW       0.590600
     14 O17          1.3270     0.4060    -1.3580 o          1 ESW      -0.537000
     15 C22         -6.9000     1.9170     0.3810 c6         1 ESW       0.245500
     16 C23         -6.9180     3.1480     1.3160 c6         1 ESW      -0.132400
     17 C24         -8.2250     3.9480     1.1170 c6         1 ESW       0.157600
     18 C26         -8.4450     3.1920    -1.1740 c6         1 ESW       0.157600
     19 C27         -7.1500     2.3540    -1.0830 c6         1 ESW      -0.132400
     20 C35         10.4060     1.3430    -1.1070 ca         1 ESW      -0.104000
     21 C36          9.7070     2.5490    -0.9520 ca         1 ESW      -0.112000
     22 C37          8.4490     2.5650    -0.3240 ca         1 ESW      -0.101500
     23 O6           3.7540     0.2850     1.3540 o          1 ESW      -0.592100
     24 N8           2.4150    -1.4750    -0.4690 n          1 ESW      -0.400800
     25 C9           2.0470    -2.7620     0.1990 c5         1 ESW       0.143300
     26 C18         -3.6810    -1.6690    -0.1430 cp         1 ESW       0.244500
     27 N19         -4.0190    -0.4070     0.1950 nb         1 ESW      -0.249000
     28 C20         -5.3130    -0.0630     0.1170 ca         1 ESW       0.394900
     29 N21         -5.5970     1.2430     0.4930 nu         1 ESW      -0.912100
     30 O25         -8.3640     4.3170    -0.2720 os         1 ESW      -0.448000
     31 N28         -6.3310    -0.8520    -0.2750 nb         1 ESW      -0.241000
     32 C29         -6.0090    -2.1080    -0.6360 ca         1 ESW       0.164900
     33 C30         -4.6830    -2.5740    -0.5930 ca         1 ESW      -0.066000
     34 Cl1         -4.3380    -4.2150    -1.1490 cl         1 ESW      -0.176000
     35 C32          7.8650     1.3680     0.1650 ca         1 ESW      -0.102300
     36 C33          8.5860     0.1620    -0.0070 ca         1 ESW      -0.101500
     37 C34          9.8430     0.1490    -0.6350 ca         1 ESW      -0.112000
     38 H39          5.6160     3.1080    -0.0890 hc         1 ESW       0.049367
     39 H38          4.8180     2.6570     1.4230 hc         1 ESW       0.049367
     40 H40          6.3990     3.4320     1.4780 hc         1 ESW       0.049367
     41 H41          5.7490     0.8540     2.8890 hc         1 ESW       0.049367
     42 H43          7.0030    -0.2530     2.3090 hc         1 ESW       0.049367
     43 H42          7.4320     1.3860     2.8310 hc         1 ESW       0.049367
     44 H44          6.0570     0.0680    -0.7960 hn         1 ESW       0.312500
     45 H45          3.8480    -0.4950    -1.6850 h1         1 ESW       0.072200
     46 H46          4.4710    -1.8730    -0.7670 h1         1 ESW       0.072200
     47 H49         -0.1020    -4.4710     1.1460 ha         1 ESW       0.123000
     48 H50         -2.5180    -3.9210     0.9740 ha         1 ESW       0.125000
     49 H51         -1.5220    -0.1610    -0.9800 ha         1 ESW       0.146000
     50 H53         -7.7130     1.2430     0.6980 h1         1 ESW       0.080700
     51 H54         -6.8330     2.8300     2.3640 hc         1 ESW       0.058700
     52 H55         -6.0600     3.8010     1.1090 hc         1 ESW       0.058700
     53 H56         -9.0950     3.3470     1.4230 h1         1 ESW       0.047950
     54 H57         -8.2060     4.8600     1.7300 h1         1 ESW       0.047950
     55 H59         -8.5810     3.5650    -2.2000 h1         1 ESW       0.047950
     56 H58         -9.3200     2.5780    -0.9140 h1         1 ESW       0.047950
     57 H60         -6.3040     2.9480    -1.4540 hc         1 ESW       0.058700
     58 H61         -7.2320     1.4760    -1.7370 hc         1 ESW       0.058700
     59 H65         11.3790     1.3330    -1.5940 ha         1 ESW       0.115000
     60 H66         10.1410     3.4760    -1.3190 ha         1 ESW       0.114500
     61 H67          7.9480     3.5240    -0.2280 ha         1 ESW       0.116000
     62 H47          2.4400    -2.8200     1.2220 h1         1 ESW       0.067200
     63 H48          2.3860    -3.6340    -0.3750 h1         1 ESW       0.067200
     64 H52         -4.7880     1.7940     0.7800 hn         1 ESW       0.507000
     65 H62         -6.8240    -2.7460    -0.9730 h4         1 ESW       0.033100
     66 H63          8.1710    -0.7800     0.3460 ha         1 ESW       0.116000
     67 H64         10.3800    -0.7900    -0.7560 ha         1 ESW       0.114500
@<TRIPOS>BOND
     1     1     2 1   
     2     1    38 1   
     3     1    39 1   
     4     1    40 1   
     5     2     3 1   
     6     2     4 1   
     7     2    35 1   
     8     3    41 1   
     9     3    42 1   
    10     3    43 1   
    11     4     5 1   
    12     4    44 1   
    13     5     6 1   
    14     5    23 2   
    15     6    24 1   
    16     6    45 1   
    17     6    46 1   
    18     7     8 ar  
    19     7    12 ar  
    20     7    25 1   
    21     8     9 ar  
    22     8    47 1   
    23     9    10 ar  
    24     9    48 1   
    25    10    11 ar  
    26    10    26 1   
    27    11    12 ar  
    28    11    49 1   
    29    12    13 1   
    30    13    14 2   
    31    13    24 1   
    32    15    16 1   
    33    15    19 1   
    34    15    29 1   
    35    15    50 1   
    36    16    17 1   
    37    16    51 1   
    38    16    52 1   
    39    17    30 1   
    40    17    53 1   
    41    17    54 1   
    42    18    19 1   
    43    18    30 1   
    44    18    55 1   
    45    18    56 1   
    46    19    57 1   
    47    19    58 1   
    48    20    21 ar  
    49    20    37 ar  
    50    20    59 1   
    51    21    22 ar  
    52    21    60 1   
    53    22    35 ar  
    54    22    61 1   
    55    24    25 1   
    56    25    62 1   
    57    25    63 1   
    58    26    27 ar  
    59    26    33 ar  
    60    27    28 ar  
    61    28    29 1   
    62    28    31 ar  
    63    29    64 1   
    64    31    32 ar  
    65    32    33 ar  
    66    32    65 1   
    67    33    34 1   
    68    35    36 ar  
    69    36    37 ar  
    70    36    66 1   
    71    37    67 1   
@<TRIPOS>SUBSTRUCTURE
     1 ESW         1 TEMP              0 ****  ****    0 ROOT
