@<TRIPOS>MOLECULE
ESX
   21    22     1     0     0
SMALL
bcc


@<TRIPOS>ATOM
      1 C0          -2.6970    -0.2180     0.0080 ce         1 ESX       0.557100
      2 C1          -1.2440    -0.1540    -0.0110 cc         1 ESX      -0.300000
      3 N1          -3.2880    -1.2900    -0.4600 nv         1 ESX      -0.472100
      4 N2          -3.3830     0.7940     0.4850 nv         1 ESX      -0.456200
      5 S2          -0.4240     1.3710    -0.1660 ss         1 ESX       0.014500
      6 C3           1.1110     0.5810    -0.0680 ca         1 ESX       0.004900
      7 C4           0.9710    -0.8120     0.0710 ca         1 ESX      -0.114800
      8 C5          -0.3970    -1.2100     0.1010 cd         1 ESX       0.009800
      9 C6           2.3620     1.1890    -0.1270 ca         1 ESX      -0.108000
     10 C7           3.4770     0.3790    -0.0400 ca         1 ESX      -0.062000
     11 C8           3.3580    -1.0120     0.1040 ca         1 ESX      -0.117000
     12 C9           2.1200    -1.6110     0.1610 ca         1 ESX      -0.060000
     13 HH11        -4.2870    -1.4220    -0.3950 hn         1 ESX       0.328450
     14 HH12        -2.7660    -1.9980    -0.9520 hn         1 ESX       0.328450
     15 HH21        -2.9340     1.5410     0.9910 hn         1 ESX       0.328450
     16 HH22        -4.3920     0.8070     0.4680 hn         1 ESX       0.328450
     17 H5          -0.7170    -2.2350     0.2300 ha         1 ESX       0.163000
     18 H6           2.4600     2.2600    -0.2350 ha         1 ESX       0.160000
     19 H7           4.4610     0.8270    -0.0800 ha         1 ESX       0.158000
     20 H8           4.2510    -1.6170     0.1720 ha         1 ESX       0.159000
     21 H9           2.0250    -2.6830     0.2690 ha         1 ESX       0.152000
@<TRIPOS>BOND
     1     1     2 1   
     2     1     3 2   
     3     1     4 1   
     4     2     5 1   
     5     2     8 2   
     6     3    13 1   
     7     3    14 1   
     8     4    15 1   
     9     4    16 1   
    10     5     6 1   
    11     6     7 ar  
    12     6     9 ar  
    13     7     8 1   
    14     7    12 ar  
    15     8    17 1   
    16     9    10 ar  
    17     9    18 1   
    18    10    11 ar  
    19    10    19 1   
    20    11    12 ar  
    21    11    20 1   
    22    12    21 1   
@<TRIPOS>SUBSTRUCTURE
     1 ESX         1 TEMP              0 ****  ****    0 ROOT
