@<TRIPOS>MOLECULE
ESX
   21    22     1     0     0
SMALL
No Charge or Current Charge


@<TRIPOS>ATOM
      1 C0          -2.7350    -0.2240     0.0340 ce         1 ESX       0.557100
      2 C1          -1.2800    -0.1580     0.0330 cc         1 ESX      -0.300000
      3 N1          -3.3780    -1.4190    -0.1280 nv         1 ESX      -0.572700
      4 N2          -3.4900     0.9050     0.1930 nv         1 ESX      -0.556800
      5 S2          -0.4320     1.4230     0.0470 ss         1 ESX       0.141400
      6 C3           1.1380     0.5760     0.0330 ca         1 ESX      -0.122000
      7 C4           1.0240    -0.7960     0.0200 ca         1 ESX      -0.114800
      8 C5          -0.3620    -1.1990     0.0210 cd         1 ESX      -0.040200
      9 C6           2.3990     1.1940     0.0350 ca         1 ESX      -0.090000
     10 C7           3.5520     0.3820     0.0240 ca         1 ESX      -0.044000
     11 C8           3.4300    -1.0260     0.0110 ca         1 ESX      -0.099000
     12 C9           2.1550    -1.6270     0.0090 ca         1 ESX      -0.042000
     13 HH11        -4.3660    -1.4070    -0.3410 hn         1 ESX       0.378750
     14 HH12        -2.8410    -2.2070    -0.4600 hn         1 ESX       0.378750
     15 HH21        -3.0240     1.7500     0.4890 hn         1 ESX       0.378750
     16 HH22        -4.4710     0.8070     0.4120 hn         1 ESX       0.378750
     17 H5          -0.6510    -2.2470     0.0220 ha         1 ESX       0.213000
     18 H6           2.4870     2.2780     0.0450 ha         1 ESX       0.142000
     19 H7           4.5390     0.8410     0.0250 ha         1 ESX       0.140000
     20 H8           4.3220    -1.6480     0.0030 ha         1 ESX       0.141000
     21 H9           2.0520    -2.7100    -0.0000 ha         1 ESX       0.134000
@<TRIPOS>BOND
     1     1     2 1   
     2     1     3 2   
     3     1     4 1   
     4     2     5 1   
     5     2     8 2   
     6     3    13 1   
     7     3    14 1   
     8     4    15 1   
     9     4    16 1   
    10     5     6 1   
    11     6     7 ar  
    12     6     9 ar  
    13     7     8 1   
    14     7    12 ar  
    15     8    17 1   
    16     9    10 ar  
    17     9    18 1   
    18    10    11 ar  
    19    10    19 1   
    20    11    12 ar  
    21    11    20 1   
    22    12    21 1   
@<TRIPOS>SUBSTRUCTURE
     1 ESX         1 TEMP              0 ****  ****    0 ROOT
