@<TRIPOS>MOLECULE
ESY
   86    87     1     0     0
SMALL
No Charge or Current Charge


@<TRIPOS>ATOM
      1 C1          -9.2280     4.5590    -2.3240 ca         1 ESY      -0.098000
      2 C2          -9.6900     3.4740    -1.5600 ca         1 ESY      -0.115500
      3 C3          -8.9840     3.0670    -0.4140 ca         1 ESY      -0.083500
      4 C4          -7.8100     3.7440    -0.0250 ca         1 ESY      -0.102300
      5 C5          -7.0470     3.3010     1.2160 c3         1 ESY       0.231900
      6 O6          -6.1310     2.2610     0.8350 os         1 ESY      -0.454100
      7 C7          -5.3810     1.6950     1.8170 c          1 ESY       0.642100
      8 N8          -4.5960     0.7260     1.2640 ns         1 ESY      -0.494900
      9 C9          -3.6710    -0.1570     2.0040 c3         1 ESY       0.055700
     10 C10         -2.6520    -0.8170     1.0270 c          1 ESY       0.594100
     11 N11         -1.6880    -1.6070     1.6200 ns         1 ESY      -0.490900
     12 C12         -0.6290    -2.3470     0.8940 c3         1 ESY       0.059700
     13 C13          0.7280    -1.5930     0.9110 c3         1 ESY      -0.086400
     14 C14          0.6820    -0.1690     0.3070 c3         1 ESY      -0.072400
     15 C15          2.0750     0.4950     0.2410 c3         1 ESY      -0.096400
     16 C16          2.0290     1.9380    -0.3000 c3         1 ESY       0.103000
     17 N17          3.3700     2.5210    -0.3920 ns         1 ESY      -0.484900
     18 C18          4.2360     2.3230    -1.4480 c          1 ESY       0.559100
     19 C19          5.6420     2.9960    -1.3070 c3         1 ESY       0.105300
     20 C20          6.6460     2.0860    -0.5360 c3         1 ESY      -0.202700
     21 C21          6.8120     0.7640    -1.3070 c          1 ESY       0.574900
     22 O22          6.4450    -0.3190    -0.8640 o          1 ESY      -0.510100
     23 C23          8.0340     2.7530    -0.2220 c3         1 ESY      -0.045700
     24 C24          8.9990     1.7600     0.5000 c3         1 ESY      -0.079400
     25 C25         10.4320     2.2870     0.7350 c3         1 ESY      -0.088100
     26 C26          7.8770     4.0720     0.5830 c3         1 ESY      -0.088100
     27 O27          6.2040     3.3460    -2.5950 oh         1 ESY      -0.651000
     28 C29         -0.4850    -3.7860     1.4600 c          1 ESY       0.580100
     29 O30          0.2200    -4.5960     0.6090 os         1 ESY      -0.438100
     30 C31          0.4350    -5.9610     1.0030 c3         1 ESY       0.213900
     31 C32          1.2490    -6.6470    -0.0860 ca         1 ESY      -0.100300
     32 C33          2.6560    -6.6690    -0.0150 ca         1 ESY      -0.085000
     33 C34          3.4060    -7.3050    -1.0200 ca         1 ESY      -0.114500
     34 C35          2.7540    -7.9210    -2.1010 ca         1 ESY      -0.097000
     35 C36          1.3520    -7.8990    -2.1790 ca         1 ESY      -0.114500
     36 C37          0.6010    -7.2630    -1.1750 ca         1 ESY      -0.085000
     37 O28          3.9050     1.7080    -2.4540 o          1 ESY      -0.608100
     38 O38         -0.9540    -4.1560     2.5310 o          1 ESY      -0.483000
     39 O39         -2.6970    -0.6610    -0.1880 o          1 ESY      -0.596100
     40 C40         -4.4570    -1.2070     2.8290 c3         1 ESY      -0.114100
     41 O41         -5.4010     1.9970     2.9990 o          1 ESY      -0.554000
     42 C42         -7.3500     4.8300    -0.7960 ca         1 ESY      -0.083500
     43 C43         -8.0570     5.2360    -1.9410 ca         1 ESY      -0.115500
     44 H1          -9.7740     4.8730    -3.2100 ha         1 ESY       0.113000
     45 H2         -10.5960     2.9480    -1.8550 ha         1 ESY       0.114500
     46 H3          -9.3470     2.2240     0.1700 ha         1 ESY       0.115000
     47 H5          -6.5080     4.1570     1.6450 h1         1 ESY       0.055700
     48 H5A         -7.7580     2.9370     1.9700 h1         1 ESY       0.055700
     49 HN8         -4.6730     0.6160     0.2590 hn         1 ESY       0.352500
     50 H9          -3.0840     0.4610     2.6970 h1         1 ESY       0.081700
     51 HN11        -1.7340    -1.7050     2.6290 hn         1 ESY       0.326500
     52 H12         -0.9360    -2.4730    -0.1520 h1         1 ESY       0.101700
     53 H13          1.0900    -1.5320     1.9450 hc         1 ESY       0.058700
     54 H13A         1.4650    -2.1860     0.3550 hc         1 ESY       0.058700
     55 H14          0.2580    -0.2170    -0.7040 hc         1 ESY       0.051200
     56 H14A         0.0150     0.4620     0.9060 hc         1 ESY       0.051200
     57 H15          2.5210     0.5050     1.2430 hc         1 ESY       0.045700
     58 H15A         2.7310    -0.1090    -0.3980 hc         1 ESY       0.045700
     59 H16          1.5600     1.9480    -1.2930 h1         1 ESY       0.059700
     60 H16A         1.4190     2.5620     0.3680 h1         1 ESY       0.059700
     61 HN17         3.7150     3.0600     0.3940 hn         1 ESY       0.317500
     62 H19          5.4660     3.9100    -0.7240 h1         1 ESY       0.071700
     63 H20          6.1810     1.8310     0.4260 hc         1 ESY       0.067700
     64 H21          7.3040     0.8400    -2.3030 h4         1 ESY       0.000200
     65 H23          8.5030     3.0150    -1.1810 hc         1 ESY       0.066700
     66 H24          8.5660     1.4660     1.4650 hc         1 ESY       0.038200
     67 H24A         9.0940     0.8410    -0.0910 hc         1 ESY       0.038200
     68 H25         11.0760     1.4790     1.1030 hc         1 ESY       0.034700
     69 H25A        10.8660     2.6690    -0.1980 hc         1 ESY       0.034700
     70 H25B        10.4480     3.0880     1.4840 hc         1 ESY       0.034700
     71 H26          8.8470     4.5430     0.7710 hc         1 ESY       0.036033
     72 H26A         7.2820     4.8100     0.0330 hc         1 ESY       0.036033
     73 H26B         7.3920     3.8860     1.5490 hc         1 ESY       0.036033
     74 HO27         5.5010     3.1850    -3.2680 ho         1 ESY       0.478000
     75 H31          0.9800    -6.0110     1.9550 h1         1 ESY       0.057200
     76 H31A        -0.5210    -6.4850     1.1330 h1         1 ESY       0.057200
     77 H33          3.1680    -6.1920     0.8180 ha         1 ESY       0.114500
     78 H34          4.4920    -7.3200    -0.9590 ha         1 ESY       0.115000
     79 H35          3.3350    -8.4130    -2.8780 ha         1 ESY       0.114000
     80 H36          0.8460    -8.3740    -3.0170 ha         1 ESY       0.115000
     81 H37         -0.4850    -7.2480    -1.2430 ha         1 ESY       0.114500
     82 H40         -5.0380    -1.8620     2.1680 hc         1 ESY       0.054033
     83 H40A        -3.7800    -1.8320     3.4230 hc         1 ESY       0.054033
     84 H40B        -5.1510    -0.7190     3.5230 hc         1 ESY       0.054033
     85 H42         -6.4430     5.3580    -0.5090 ha         1 ESY       0.115000
     86 H43         -7.6970     6.0750    -2.5330 ha         1 ESY       0.114500
@<TRIPOS>BOND
     1     1     2 ar  
     2     1    43 ar  
     3     1    44 1   
     4     2     3 ar  
     5     2    45 1   
     6     3     4 ar  
     7     3    46 1   
     8     4     5 1   
     9     4    42 ar  
    10     5     6 1   
    11     5    47 1   
    12     5    48 1   
    13     6     7 1   
    14     7     8 1   
    15     7    41 2   
    16     8     9 1   
    17     8    49 1   
    18     9    10 1   
    19     9    40 1   
    20     9    50 1   
    21    10    11 1   
    22    10    39 2   
    23    11    12 1   
    24    11    51 1   
    25    12    13 1   
    26    12    28 1   
    27    12    52 1   
    28    13    14 1   
    29    13    53 1   
    30    13    54 1   
    31    14    15 1   
    32    14    55 1   
    33    14    56 1   
    34    15    16 1   
    35    15    57 1   
    36    15    58 1   
    37    16    17 1   
    38    16    59 1   
    39    16    60 1   
    40    17    18 1   
    41    17    61 1   
    42    18    19 1   
    43    18    37 2   
    44    19    20 1   
    45    19    27 1   
    46    19    62 1   
    47    20    21 1   
    48    20    23 1   
    49    20    63 1   
    50    21    22 2   
    51    21    64 1   
    52    23    24 1   
    53    23    26 1   
    54    23    65 1   
    55    24    25 1   
    56    24    66 1   
    57    24    67 1   
    58    25    68 1   
    59    25    69 1   
    60    25    70 1   
    61    26    71 1   
    62    26    72 1   
    63    26    73 1   
    64    27    74 1   
    65    28    29 1   
    66    28    38 2   
    67    29    30 1   
    68    30    31 1   
    69    30    75 1   
    70    30    76 1   
    71    31    32 ar  
    72    31    36 ar  
    73    32    33 ar  
    74    32    77 1   
    75    33    34 ar  
    76    33    78 1   
    77    34    35 ar  
    78    34    79 1   
    79    35    36 ar  
    80    35    80 1   
    81    36    81 1   
    82    40    82 1   
    83    40    83 1   
    84    40    84 1   
    85    42    43 ar  
    86    42    85 1   
    87    43    86 1   
@<TRIPOS>SUBSTRUCTURE
     1 ESY         1 TEMP              0 ****  ****    0 ROOT
