@<TRIPOS>MOLECULE
ESY
   86    87     1     0     0
SMALL
abcg2


@<TRIPOS>ATOM
      1 C1         -10.9280     1.8010    -2.3700 ca         1 ESY      -0.098000
      2 C2         -10.8940     1.3550    -1.0550 ca         1 ESY      -0.115500
      3 C3          -9.8340     1.7040    -0.2310 ca         1 ESY      -0.083500
      4 C4          -8.7980     2.5020    -0.7100 ca         1 ESY      -0.102300
      5 C5          -7.6420     2.8530     0.1770 c3         1 ESY       0.231900
      6 O6          -6.7390     1.7410     0.1420 os         1 ESY      -0.454100
      7 C7          -5.6590     1.8120     0.9270 c          1 ESY       0.642100
      8 N8          -4.8990     0.7120     0.7940 ns         1 ESY      -0.494900
      9 C9          -3.7130     0.4970     1.5810 c3         1 ESY       0.055700
     10 C10         -2.8150    -0.4720     0.8250 c          1 ESY       0.594100
     11 N11         -1.5180    -0.4330     1.1630 ns         1 ESY      -0.490900
     12 C12         -0.5930    -1.4140     0.6620 c3         1 ESY       0.059700
     13 C13          0.8410    -1.0670     1.0690 c3         1 ESY      -0.086400
     14 C14          1.3200     0.2600     0.4930 c3         1 ESY      -0.072400
     15 C15          2.7790     0.5280     0.8350 c3         1 ESY      -0.096400
     16 C16          3.2400     1.8740     0.3030 c3         1 ESY       0.103000
     17 N17          4.6330     2.1040     0.6360 ns         1 ESY      -0.484900
     18 C18          5.2680     3.2370     0.3480 c          1 ESY       0.559100
     19 C19          6.7540     3.3040     0.7050 c3         1 ESY       0.105300
     20 C20          7.5830     2.4080    -0.2460 c3         1 ESY      -0.202700
     21 C21          7.3150     2.8450    -1.6640 c          1 ESY       0.574900
     22 O22          6.4870     2.3490    -2.3870 o          1 ESY      -0.510100
     23 C23          9.0920     2.4550     0.0470 c3         1 ESY      -0.045700
     24 C24          9.8220     1.5060    -0.9130 c3         1 ESY      -0.079400
     25 C25         11.3400     1.6050    -0.8610 c3         1 ESY      -0.088100
     26 C26          9.3960     2.1160     1.5030 c3         1 ESY      -0.088100
     27 O27          7.1800     4.6320     0.6540 oh         1 ESY      -0.651000
     28 C29         -0.9610    -2.7950     1.1910 c          1 ESY       0.580100
     29 O30         -0.4490    -3.7440     0.4250 os         1 ESY      -0.438100
     30 C31         -0.6350    -5.1110     0.8360 c3         1 ESY       0.213900
     31 C32          0.1260    -5.9660    -0.1280 ca         1 ESY      -0.100300
     32 C33          1.4920    -6.1740     0.0450 ca         1 ESY      -0.085000
     33 C34          2.2060    -6.9500    -0.8570 ca         1 ESY      -0.114500
     34 C35          1.5580    -7.5260    -1.9440 ca         1 ESY      -0.097000
     35 C36          0.1970    -7.3230    -2.1230 ca         1 ESY      -0.114500
     36 C37         -0.5150    -6.5450    -1.2190 ca         1 ESY      -0.085000
     37 O28          4.7350     4.2030    -0.1880 o          1 ESY      -0.608100
     38 O38         -1.5970    -2.9940     2.1920 o          1 ESY      -0.483000
     39 O39         -3.2550    -1.2540    -0.0040 o          1 ESY      -0.596100
     40 C40         -4.0250    -0.0720     2.9690 c3         1 ESY      -0.114100
     41 O41         -5.4050     2.7540     1.6510 o          1 ESY      -0.554000
     42 C42         -8.8400     2.9450    -2.0280 ca         1 ESY      -0.083500
     43 C43         -9.9000     2.5990    -2.8560 ca         1 ESY      -0.115500
     44 H1         -11.7550     1.5300    -3.0140 ha         1 ESY       0.113000
     45 H2         -11.6950     0.7370    -0.6700 ha         1 ESY       0.114500
     46 H3          -9.8150     1.3580     0.7960 ha         1 ESY       0.115000
     47 H5          -7.1430     3.7560    -0.1780 h1         1 ESY       0.055700
     48 H5A         -7.9800     3.0310     1.2000 h1         1 ESY       0.055700
     49 HN8         -5.2140    -0.0470     0.2070 hn         1 ESY       0.352500
     50 H9          -3.1900     1.4490     1.6970 h1         1 ESY       0.081700
     51 HN11        -1.2160     0.1830     1.9030 hn         1 ESY       0.326500
     52 H12         -0.6470    -1.4390    -0.4300 h1         1 ESY       0.101700
     53 H13          0.9170    -1.0530     2.1610 hc         1 ESY       0.058700
     54 H13A         1.4960    -1.8680     0.7200 hc         1 ESY       0.058700
     55 H14          1.1930     0.2490    -0.5940 hc         1 ESY       0.051200
     56 H14A         0.7060     1.0820     0.8700 hc         1 ESY       0.051200
     57 H15          2.9140     0.5020     1.9210 hc         1 ESY       0.045700
     58 H15A         3.4060    -0.2660     0.4180 hc         1 ESY       0.045700
     59 H16          3.1080     1.9130    -0.7820 h1         1 ESY       0.059700
     60 H16A         2.6270     2.6720     0.7290 h1         1 ESY       0.059700
     61 HN17         5.1380     1.3670     1.1020 hn         1 ESY       0.317500
     62 H19          6.8810     2.9190     1.7240 h1         1 ESY       0.071700
     63 H20          7.2310     1.3750    -0.1330 hc         1 ESY       0.067700
     64 H21          7.9240     3.7000    -2.0120 h4         1 ESY       0.000200
     65 H23          9.4480     3.4730    -0.1550 hc         1 ESY       0.066700
     66 H24          9.5060     0.4780    -0.7040 hc         1 ESY       0.038200
     67 H24A         9.5080     1.7120    -1.9420 hc         1 ESY       0.038200
     68 H25         11.7930     0.9550    -1.6100 hc         1 ESY       0.034700
     69 H25A        11.6740     2.6240    -1.0640 hc         1 ESY       0.034700
     70 H25B        11.7430     1.3120     0.1080 hc         1 ESY       0.034700
     71 H26         10.4690     2.0530     1.6750 hc         1 ESY       0.036033
     72 H26A         9.0110     2.8680     2.1930 hc         1 ESY       0.036033
     73 H26B         8.9590     1.1530     1.7780 hc         1 ESY       0.036033
     74 HO27         6.4870     5.1300     0.1920 ho         1 ESY       0.478000
     75 H31         -0.2650    -5.2420     1.8550 h1         1 ESY       0.057200
     76 H31A        -1.6990    -5.3540     0.8260 h1         1 ESY       0.057200
     77 H33          2.0000    -5.7330     0.8940 ha         1 ESY       0.114500
     78 H34          3.2660    -7.1100    -0.7100 ha         1 ESY       0.115000
     79 H35          2.1140    -8.1340    -2.6460 ha         1 ESY       0.114000
     80 H36         -0.3130    -7.7710    -2.9660 ha         1 ESY       0.115000
     81 H37         -1.5780    -6.3900    -1.3630 ha         1 ESY       0.114500
     82 H40         -4.5040    -1.0480     2.8890 hc         1 ESY       0.054033
     83 H40A        -3.1190    -0.1820     3.5640 hc         1 ESY       0.054033
     84 H40B        -4.6950     0.6020     3.5020 hc         1 ESY       0.054033
     85 H42         -8.0400     3.5680    -2.4110 ha         1 ESY       0.115000
     86 H43         -9.9240     2.9530    -3.8780 ha         1 ESY       0.114500
@<TRIPOS>BOND
     1     1     2 ar  
     2     1    43 ar  
     3     1    44 1   
     4     2     3 ar  
     5     2    45 1   
     6     3     4 ar  
     7     3    46 1   
     8     4     5 1   
     9     4    42 ar  
    10     5     6 1   
    11     5    47 1   
    12     5    48 1   
    13     6     7 1   
    14     7     8 1   
    15     7    41 2   
    16     8     9 1   
    17     8    49 1   
    18     9    10 1   
    19     9    40 1   
    20     9    50 1   
    21    10    11 1   
    22    10    39 2   
    23    11    12 1   
    24    11    51 1   
    25    12    13 1   
    26    12    28 1   
    27    12    52 1   
    28    13    14 1   
    29    13    53 1   
    30    13    54 1   
    31    14    15 1   
    32    14    55 1   
    33    14    56 1   
    34    15    16 1   
    35    15    57 1   
    36    15    58 1   
    37    16    17 1   
    38    16    59 1   
    39    16    60 1   
    40    17    18 1   
    41    17    61 1   
    42    18    19 1   
    43    18    37 2   
    44    19    20 1   
    45    19    27 1   
    46    19    62 1   
    47    20    21 1   
    48    20    23 1   
    49    20    63 1   
    50    21    22 2   
    51    21    64 1   
    52    23    24 1   
    53    23    26 1   
    54    23    65 1   
    55    24    25 1   
    56    24    66 1   
    57    24    67 1   
    58    25    68 1   
    59    25    69 1   
    60    25    70 1   
    61    26    71 1   
    62    26    72 1   
    63    26    73 1   
    64    27    74 1   
    65    28    29 1   
    66    28    38 2   
    67    29    30 1   
    68    30    31 1   
    69    30    75 1   
    70    30    76 1   
    71    31    32 ar  
    72    31    36 ar  
    73    32    33 ar  
    74    32    77 1   
    75    33    34 ar  
    76    33    78 1   
    77    34    35 ar  
    78    34    79 1   
    79    35    36 ar  
    80    35    80 1   
    81    36    81 1   
    82    40    82 1   
    83    40    83 1   
    84    40    84 1   
    85    42    43 ar  
    86    42    85 1   
    87    43    86 1   
@<TRIPOS>SUBSTRUCTURE
     1 ESY         1 TEMP              0 ****  ****    0 ROOT
