@<TRIPOS>MOLECULE
ESZ
   44    47     1     0     0
SMALL
No Charge or Current Charge


@<TRIPOS>ATOM
      1 Br2         -4.6330     1.0920    -0.0070 br         1 ESZ      -0.285000
      2 C8          -3.1620     0.0310     0.8570 c5         1 ESZ       0.068300
      3 C7          -2.7110    -1.1820    -0.0350 c5         1 ESZ       0.177300
      4 O1          -3.4860    -2.3610     0.2030 oh         1 ESZ      -0.644000
      5 C5          -1.2040    -1.3380     0.3590 c5         1 ESZ      -0.041000
      6 C6          -1.0070    -1.9420     1.7980 c3         1 ESZ      -0.077100
      7 C4          -0.3590    -2.1770    -0.6430 c6         1 ESZ      -0.060400
      8 C3           1.1710    -1.9380    -0.4620 c6         1 ESZ      -0.070400
      9 C2           1.5600    -0.4200    -0.5370 c6         1 ESZ      -0.004400
     10 C12          0.6990     0.4240     0.4630 c6         1 ESZ      -0.045700
     11 C10         -0.8100     0.1620     0.1980 c5         1 ESZ      -0.067700
     12 C9          -1.8630     0.8800     1.0900 c5         1 ESZ      -0.062400
     13 C21          3.0750    -0.1280    -0.3750 ca         1 ESZ      -0.102300
     14 C20          4.0460    -1.0310    -0.8700 ca         1 ESZ      -0.068000
     15 C19          5.4180    -0.7550    -0.7450 ca         1 ESZ      -0.206000
     16 C18          5.8410     0.4310    -0.1350 ca         1 ESZ       0.139100
     17 O3           7.1710     0.7010    -0.0120 oh         1 ESZ      -0.535100
     18 C17          4.8960     1.3460     0.3410 ca         1 ESZ      -0.149000
     19 C16          3.5170     1.0850     0.2200 ca         1 ESZ      -0.034300
     20 C15          2.5390     2.1330     0.7650 c6         1 ESZ      -0.033100
     21 C14          1.0750     1.9160     0.3320 c6         1 ESZ      -0.070400
     22 H1          -3.5990    -0.2970     1.8090 h1         1 ESZ       0.090700
     23 H2          -2.7880    -0.9060    -1.0970 h1         1 ESZ       0.045700
     24 H3          -4.3980    -2.1680    -0.1080 ho         1 ESZ       0.453000
     25 H4          -1.2860    -3.0020     1.8170 hc         1 ESZ       0.039033
     26 H5           0.0300    -1.8810     2.1430 hc         1 ESZ       0.039033
     27 H6          -1.6200    -1.4460     2.5590 hc         1 ESZ       0.039033
     28 H7          -0.5890    -3.2460    -0.5370 hc         1 ESZ       0.046700
     29 H8          -0.6390    -1.9100    -1.6720 hc         1 ESZ       0.046700
     30 H9           1.5210    -2.3680     0.4860 hc         1 ESZ       0.043700
     31 H10          1.6790    -2.5000    -1.2550 hc         1 ESZ       0.043700
     32 H11          1.2990    -0.0850    -1.5510 hc         1 ESZ       0.052700
     33 H12          0.9360     0.1100     1.4890 hc         1 ESZ       0.058700
     34 H13         -0.9580     0.4850    -0.8420 hc         1 ESZ       0.050700
     35 H14         -1.9960     1.9300     0.8040 hc         1 ESZ       0.060200
     36 H15         -1.5720     0.8780     2.1470 hc         1 ESZ       0.060200
     37 H16          3.7550    -1.9520    -1.3640 ha         1 ESZ       0.110000
     38 H17          6.1440    -1.4680    -1.1290 ha         1 ESZ       0.113000
     39 H18          7.6740    -0.0460    -0.4010 ho         1 ESZ       0.463000
     40 H19          5.2350     2.2670     0.8080 ha         1 ESZ       0.125000
     41 H20          2.5920     2.1180     1.8620 hc         1 ESZ       0.051700
     42 H21          2.8590     3.1390     0.4610 hc         1 ESZ       0.051700
     43 H22          0.9390     2.2490    -0.7060 hc         1 ESZ       0.044200
     44 H23          0.4190     2.5420     0.9520 hc         1 ESZ       0.044200
@<TRIPOS>BOND
     1     1     2 1   
     2     2     3 1   
     3     2    12 1   
     4     2    22 1   
     5     3     4 1   
     6     3     5 1   
     7     3    23 1   
     8     4    24 1   
     9     5     6 1   
    10     5     7 1   
    11     5    11 1   
    12     6    25 1   
    13     6    26 1   
    14     6    27 1   
    15     7     8 1   
    16     7    28 1   
    17     7    29 1   
    18     8     9 1   
    19     8    30 1   
    20     8    31 1   
    21     9    10 1   
    22     9    13 1   
    23     9    32 1   
    24    10    11 1   
    25    10    21 1   
    26    10    33 1   
    27    11    12 1   
    28    11    34 1   
    29    12    35 1   
    30    12    36 1   
    31    13    14 ar  
    32    13    19 ar  
    33    14    15 ar  
    34    14    37 1   
    35    15    16 ar  
    36    15    38 1   
    37    16    17 1   
    38    16    18 ar  
    39    17    39 1   
    40    18    19 ar  
    41    18    40 1   
    42    19    20 1   
    43    20    21 1   
    44    20    41 1   
    45    20    42 1   
    46    21    43 1   
    47    21    44 1   
@<TRIPOS>SUBSTRUCTURE
     1 ESZ         1 TEMP              0 ****  ****    0 ROOT
