@<TRIPOS>MOLECULE
ESZ
   44    47     1     0     0
SMALL
abcg2


@<TRIPOS>ATOM
      1 BR2         -4.6620     0.9090     0.1250 br         1 ESZ      -0.285000
      2 C8          -3.0770     0.0040     0.8860 c5         1 ESZ       0.068300
      3 C7          -2.6590    -1.2040     0.0250 c5         1 ESZ       0.177300
      4 O1          -3.3570    -2.3810     0.3080 oh         1 ESZ      -0.644000
      5 C5          -1.1600    -1.3100     0.3240 c5         1 ESZ      -0.041000
      6 C6          -0.9310    -1.8600     1.7370 c3         1 ESZ      -0.077100
      7 C4          -0.3570    -2.1110    -0.6940 c6         1 ESZ      -0.060400
      8 C3           1.1470    -1.8750    -0.5270 c6         1 ESZ      -0.070400
      9 C2           1.5210    -0.3870    -0.5430 c6         1 ESZ      -0.004400
     10 C12          0.6910     0.4280     0.4630 c6         1 ESZ      -0.045700
     11 C10         -0.7780     0.1700     0.1830 c5         1 ESZ      -0.067700
     12 C9          -1.8420     0.9160     0.9950 c5         1 ESZ      -0.062400
     13 C21          3.0060    -0.1280    -0.3620 ca         1 ESZ      -0.102300
     14 C20          3.9620    -1.0380    -0.8120 ca         1 ESZ      -0.068000
     15 C19          5.3230    -0.8100    -0.6910 ca         1 ESZ      -0.206000
     16 C18          5.7680     0.3700    -0.1040 ca         1 ESZ       0.139100
     17 O3           7.0780     0.6630     0.0490 oh         1 ESZ      -0.535100
     18 C17          4.8340     1.2920     0.3470 ca         1 ESZ      -0.149000
     19 C16          3.4670     1.0580     0.2260 ca         1 ESZ      -0.034300
     20 C15          2.5210     2.0960     0.7770 c6         1 ESZ      -0.033100
     21 C14          1.0750     1.8950     0.3500 c6         1 ESZ      -0.070400
     22 H1          -3.4170    -0.3360     1.8640 h1         1 ESZ       0.090700
     23 H2          -2.7570    -0.9370    -1.0380 h1         1 ESZ       0.045700
     24 H3          -4.2520    -2.3010    -0.0360 ho         1 ESZ       0.453000
     25 H4          -1.2870    -2.8880     1.8080 hc         1 ESZ       0.039033
     26 H5           0.1250    -1.8720     2.0010 hc         1 ESZ       0.039033
     27 H6          -1.4410    -1.2830     2.5100 hc         1 ESZ       0.039033
     28 H7          -0.5730    -3.1800    -0.6110 hc         1 ESZ       0.046700
     29 H8          -0.6580    -1.8060    -1.7020 hc         1 ESZ       0.046700
     30 H9           1.5060    -2.3340     0.3990 hc         1 ESZ       0.043700
     31 H10          1.6580    -2.3960    -1.3390 hc         1 ESZ       0.043700
     32 H11          1.2430    -0.0050    -1.5370 hc         1 ESZ       0.052700
     33 H12          0.9290     0.0910     1.4810 hc         1 ESZ       0.058700
     34 H13         -0.9440     0.4350    -0.8720 hc         1 ESZ       0.050700
     35 H14         -2.0150     1.9230     0.6180 hc         1 ESZ       0.060200
     36 H15         -1.5540     1.0180     2.0440 hc         1 ESZ       0.060200
     37 H16          3.6500    -1.9630    -1.2780 ha         1 ESZ       0.110000
     38 H17          6.0290    -1.5490    -1.0520 ha         1 ESZ       0.113000
     39 H18          7.6210    -0.0550    -0.2950 ho         1 ESZ       0.463000
     40 H19          5.1780     2.2150     0.8030 ha         1 ESZ       0.125000
     41 H20          2.5760     2.0630     1.8700 hc         1 ESZ       0.051700
     42 H21          2.8670     3.0930     0.4930 hc         1 ESZ       0.051700
     43 H22          0.9280     2.2260    -0.6840 hc         1 ESZ       0.044200
     44 H23          0.4280     2.5170     0.9720 hc         1 ESZ       0.044200
@<TRIPOS>BOND
     1     1     2 1   
     2     2     3 1   
     3     2    12 1   
     4     2    22 1   
     5     3     4 1   
     6     3     5 1   
     7     3    23 1   
     8     4    24 1   
     9     5     6 1   
    10     5     7 1   
    11     5    11 1   
    12     6    25 1   
    13     6    26 1   
    14     6    27 1   
    15     7     8 1   
    16     7    28 1   
    17     7    29 1   
    18     8     9 1   
    19     8    30 1   
    20     8    31 1   
    21     9    10 1   
    22     9    13 1   
    23     9    32 1   
    24    10    11 1   
    25    10    21 1   
    26    10    33 1   
    27    11    12 1   
    28    11    34 1   
    29    12    35 1   
    30    12    36 1   
    31    13    14 ar  
    32    13    19 ar  
    33    14    15 ar  
    34    14    37 1   
    35    15    16 ar  
    36    15    38 1   
    37    16    17 1   
    38    16    18 ar  
    39    17    39 1   
    40    18    19 ar  
    41    18    40 1   
    42    19    20 1   
    43    20    21 1   
    44    20    41 1   
    45    20    42 1   
    46    21    43 1   
    47    21    44 1   
@<TRIPOS>SUBSTRUCTURE
     1 ESZ         1 TEMP              0 ****  ****    0 ROOT
