@<TRIPOS>MOLECULE
ET0
   28    29     1     0     0
SMALL
No Charge or Current Charge


@<TRIPOS>ATOM
      1 N1           0.7490     2.9420     0.3210 na         1 ET0      -0.240700
      2 C4           1.4370     1.7470     0.2280 ca         1 ET0      -0.077200
      3 C5          -3.8040    -1.0630     0.1200 c          1 ET0       0.716000
      4 C6           1.0530    -0.5880    -0.2740 ca         1 ET0      -0.074000
      5 C8           2.8060     1.5270     0.4320 ca         1 ET0      -0.115000
      6 C10          2.4250    -0.8480    -0.0760 ca         1 ET0       0.079100
      7 O2          -3.6980    -2.1550    -0.4180 o          1 ET0      -0.743000
      8 O1          -4.8710    -0.4910     0.2820 o          1 ET0      -0.743000
      9 C9          -2.5200    -0.3420     0.5590 c3         1 ET0      -0.202400
     10 C2          -0.7260     1.2770    -0.2470 cc         1 ET0      -0.096400
     11 C3          -0.6010     2.6370     0.0210 cd         1 ET0      -0.184100
     12 C1           0.5940     0.7270    -0.1100 ca         1 ET0      -0.061800
     13 C11          3.3020     0.2150     0.2790 ca         1 ET0      -0.173000
     14 O3           2.8650    -2.1460    -0.2400 os         1 ET0      -0.345100
     15 C12          4.2430    -2.5180    -0.0620 c3         1 ET0       0.157900
     16 H6           0.3720    -1.3890    -0.5480 ha         1 ET0       0.144000
     17 H7          -1.7960    -0.1090    -1.4750 hc         1 ET0       0.048200
     18 H7A         -2.7620     1.2410    -0.9050 hc         1 ET0       0.048200
     19 H8           3.4690     2.3460     0.7020 ha         1 ET0       0.097000
     20 H9          -2.7290     0.3530     1.3810 hc         1 ET0       0.020700
     21 H9A         -1.7300    -1.0680     0.7850 hc         1 ET0       0.020700
     22 H3          -1.3730     3.4030     0.0220 h4         1 ET0       0.206000
     23 H11          4.3630     0.0410     0.4360 ha         1 ET0       0.099000
     24 H12          4.8870    -1.9760    -0.7670 h1         1 ET0       0.027033
     25 H12A         4.5770    -2.2990     0.9610 h1         1 ET0       0.027033
     26 H12B         4.3730    -3.5930    -0.2390 h1         1 ET0       0.027033
     27 HN1          1.1340     3.8530     0.5570 hn         1 ET0       0.334000
     28 C7          -1.9850     0.5280    -0.6020 c3         1 ET0       0.001800
@<TRIPOS>BOND
     1     1     2 1   
     2     1    11 1   
     3     1    27 1   
     4     2     5 ar  
     5     2    12 ar  
     6     3     7 1   
     7     3     8 1   
     8     3     9 1   
     9     4     6 ar  
    10     4    12 ar  
    11     4    16 1   
    12     5    13 ar  
    13     5    19 1   
    14     6    13 ar  
    15     6    14 1   
    16     9    20 1   
    17     9    21 1   
    18     9    28 1   
    19    10    11 2   
    20    10    12 1   
    21    10    28 1   
    22    11    22 1   
    23    13    23 1   
    24    14    15 1   
    25    15    24 1   
    26    15    25 1   
    27    15    26 1   
    28    17    28 1   
    29    18    28 1   
@<TRIPOS>SUBSTRUCTURE
     1 ET0         1 TEMP              0 ****  ****    0 ROOT
