@<TRIPOS>MOLECULE
ET0
   28    29     1     0     0
SMALL
bcc


@<TRIPOS>ATOM
      1 N1           0.7350     2.8720     0.2120 na         1 ET0      -0.190400
      2 C4           1.4700     1.7200     0.1870 ca         1 ET0      -0.077200
      3 C5          -3.8380    -1.0210     0.2130 c          1 ET0       0.926600
      4 C6           1.0940    -0.6310    -0.2850 ca         1 ET0      -0.092000
      5 C8           2.8160     1.4870     0.4400 ca         1 ET0      -0.133000
      6 C10          2.4380    -0.8660    -0.0350 ca         1 ET0       0.079100
      7 O2          -4.2850    -1.0320    -0.9510 o          1 ET0      -0.848300
      8 O1          -4.3360    -1.6030     1.2000 o          1 ET0      -0.848300
      9 C9          -2.5540    -0.2200     0.4850 c3         1 ET0      -0.202400
     10 C2          -0.7010     1.2440    -0.3740 cc         1 ET0      -0.096400
     11 C3          -0.5580     2.5800    -0.1230 cd         1 ET0      -0.134100
     12 C1           0.5980     0.6700    -0.1760 ca         1 ET0      -0.061800
     13 C11          3.2930     0.1920     0.3270 ca         1 ET0      -0.191000
     14 O3           2.8540    -2.1520    -0.1610 os         1 ET0      -0.321900
     15 C12          4.2150    -2.4490     0.0550 c3         1 ET0       0.134700
     16 H6           0.4460    -1.4540    -0.5650 ha         1 ET0       0.162000
     17 H7          -1.7630    -0.2080    -1.5180 hc         1 ET0       0.048200
     18 H7A         -2.6910     1.2120    -1.1200 hc         1 ET0       0.048200
     19 H8           3.4870     2.2900     0.7180 ha         1 ET0       0.115000
     20 H9          -2.7590     0.5060     1.2790 hc         1 ET0       0.020700
     21 H9A         -1.8080    -0.8990     0.9140 hc         1 ET0       0.020700
     22 H3          -1.3010     3.3630    -0.1650 h4         1 ET0       0.156000
     23 H11          4.3420     0.0150     0.5240 ha         1 ET0       0.117000
     24 H12          4.8720    -1.9260    -0.6460 h1         1 ET0       0.027033
     25 H12A         4.5360    -2.2120     1.0740 h1         1 ET0       0.027033
     26 H12B         4.3270    -3.5200    -0.1020 h1         1 ET0       0.027033
     27 HN1          1.0830     3.7880     0.4320 hn         1 ET0       0.283700
     28 C7          -1.9570     0.5100    -0.7160 c3         1 ET0       0.001800
@<TRIPOS>BOND
     1     1     2 1   
     2     1    11 1   
     3     1    27 1   
     4     2     5 ar  
     5     2    12 ar  
     6     3     7 1   
     7     3     8 1   
     8     3     9 1   
     9     4     6 ar  
    10     4    12 ar  
    11     4    16 1   
    12     5    13 ar  
    13     5    19 1   
    14     6    13 ar  
    15     6    14 1   
    16     9    20 1   
    17     9    21 1   
    18     9    28 1   
    19    10    11 2   
    20    10    12 1   
    21    10    28 1   
    22    11    22 1   
    23    13    23 1   
    24    14    15 1   
    25    15    24 1   
    26    15    25 1   
    27    15    26 1   
    28    17    28 1   
    29    18    28 1   
@<TRIPOS>SUBSTRUCTURE
     1 ET0         1 TEMP              0 ****  ****    0 ROOT
