@<TRIPOS>MOLECULE
ET1
   45    47     1     0     0
SMALL
No Charge or Current Charge


@<TRIPOS>ATOM
      1 C13          3.6250     1.2370    -1.3370 c3         1 ET1      -0.205400
      2 C17         -3.5520    -0.0930     0.5070 ca         1 ET1       0.035500
      3 C20         -3.3250     1.8950    -1.4650 ca         1 ET1      -0.197000
      4 C21         -2.4800     1.9270    -0.3440 ca         1 ET1       0.035500
      5 N01          0.0590     0.4430     1.4050 na         1 ET1      -0.189900
      6 C02          1.1420     1.3260     1.1490 cc         1 ET1      -0.193100
      7 C03          2.1570     0.5430     0.6170 cd         1 ET1      -0.054400
      8 C04          1.7130    -0.8250     0.5380 ca         1 ET1      -0.038800
      9 C05          0.4340    -0.8470     1.0230 ca         1 ET1      -0.073200
     10 C06          1.6530    -3.1960     0.1050 ca         1 ET1       0.108100
     11 C07          0.3210    -3.2270     0.6020 ca         1 ET1      -0.185000
     12 C08         -0.2990    -2.0450     1.0640 ca         1 ET1      -0.091000
     13 C09          2.3590    -1.9770     0.0710 ca         1 ET1      -0.087000
     14 O10          2.2970    -4.3260    -0.3570 os         1 ET1      -0.341100
     15 C11          1.6650    -5.6190    -0.3680 c3         1 ET1       0.154900
     16 C12          3.5140     1.0480     0.1930 c3         1 ET1      -0.008200
     17 C14          5.0270     1.7510    -1.6990 c          1 ET1       0.718000
     18 C16         -2.5940     0.9320     0.6460 ca         1 ET1      -0.352500
     19 C18         -4.3940    -0.1170    -0.6180 ca         1 ET1      -0.197000
     20 C19         -4.2820     0.8800    -1.6100 ca         1 ET1       0.198100
     21 O22         -1.9300    -0.0720     3.0050 o          1 ET1      -0.543000
     22 O23         -1.3000     2.3760     2.4790 o          1 ET1      -0.543000
     23 O24          5.9050     0.9290    -1.9100 o          1 ET1      -0.737500
     24 O25          5.2140     2.9580    -1.7070 o          1 ET1      -0.737500
     25 O26         -5.0810     0.9050    -2.7340 os         1 ET1      -0.333100
     26 C27         -6.0910    -0.0900    -2.9800 c3         1 ET1       0.148900
     27 H13          3.4510     0.2470    -1.7780 hc         1 ET1       0.020200
     28 H13A         2.8610     1.9780    -1.6030 hc         1 ET1       0.020200
     29 H21         -1.7390     2.7210    -0.2520 ha         1 ET1       0.136500
     30 H02          1.1040     2.3920     1.3560 h4         1 ET1       0.237000
     31 H07         -0.2450    -4.1530     0.6350 ha         1 ET1       0.106000
     32 H08         -1.3190    -2.0760     1.4380 ha         1 ET1       0.128000
     33 H09          3.3760    -1.9350    -0.3100 ha         1 ET1       0.150000
     34 H11          2.3510    -6.3730    -0.7730 h1         1 ET1       0.032033
     35 H11A         1.3850    -5.9240     0.6480 h1         1 ET1       0.032033
     36 H11B         0.7640    -5.6060    -0.9940 h1         1 ET1       0.032033
     37 H12          4.2900     0.3490     0.5300 hc         1 ET1       0.056700
     38 H12A         3.7260     2.0030     0.6900 hc         1 ET1       0.056700
     39 H18         -5.1230    -0.9170    -0.7020 ha         1 ET1       0.127000
     40 H27         -6.6070     0.1180    -3.9250 h1         1 ET1       0.042700
     41 H27A        -5.6450    -1.0900    -3.0490 h1         1 ET1       0.042700
     42 H27B        -6.8400    -0.0920    -2.1770 h1         1 ET1       0.042700
     43 H17         -3.6520    -0.8720     1.2610 ha         1 ET1       0.136500
     44 S15         -1.4880     0.9750     2.0710 sy         1 ET1       1.184700
     45 H20         -3.2370     2.6630    -2.2290 ha         1 ET1       0.127000
@<TRIPOS>BOND
     1     1    16 1   
     2     1    17 1   
     3     1    27 1   
     4     1    28 1   
     5     2    18 ar  
     6     2    19 ar  
     7     2    43 1   
     8     3     4 ar  
     9     3    20 ar  
    10     3    45 1   
    11     4    18 ar  
    12     4    29 1   
    13     5     6 1   
    14     5     9 1   
    15     5    44 1   
    16     6     7 2   
    17     6    30 1   
    18     7     8 1   
    19     7    16 1   
    20     8     9 ar  
    21     8    13 ar  
    22     9    12 ar  
    23    10    11 ar  
    24    10    13 ar  
    25    10    14 1   
    26    11    12 ar  
    27    11    31 1   
    28    12    32 1   
    29    13    33 1   
    30    14    15 1   
    31    15    34 1   
    32    15    35 1   
    33    15    36 1   
    34    16    37 1   
    35    16    38 1   
    36    17    23 1   
    37    17    24 1   
    38    18    44 1   
    39    19    20 ar  
    40    19    39 1   
    41    20    25 1   
    42    21    44 2   
    43    22    44 2   
    44    25    26 1   
    45    26    40 1   
    46    26    41 1   
    47    26    42 1   
@<TRIPOS>SUBSTRUCTURE
     1 ET1         1 TEMP              0 ****  ****    0 ROOT
