@<TRIPOS>MOLECULE
ET1
   45    47     1     0     0
SMALL
abcg2


@<TRIPOS>ATOM
      1 C13          2.8990     1.3150    -1.4920 c3         1 ET1      -0.205400
      2 C17         -3.1790    -0.1650     0.5270 ca         1 ET1       0.035500
      3 C20         -2.7170     1.9210    -1.2520 ca         1 ET1      -0.197000
      4 C21         -2.0820     1.9160    -0.0310 ca         1 ET1       0.035500
      5 N01          0.0940     0.2920     1.9540 na         1 ET1      -0.189900
      6 C02          1.0730     1.1720     1.4750 cc         1 ET1      -0.193100
      7 C03          1.9520     0.5180     0.6840 cd         1 ET1      -0.054400
      8 C04          1.5010    -0.8520     0.6100 ca         1 ET1      -0.038800
      9 C05          0.3380    -0.9660     1.3880 ca         1 ET1      -0.073200
     10 C06          1.3540    -3.1800     0.0740 ca         1 ET1       0.108100
     11 C07          0.1860    -3.2760     0.8450 ca         1 ET1      -0.185000
     12 C08         -0.3270    -2.1740     1.5140 ca         1 ET1      -0.091000
     13 C09          2.0180    -1.9640    -0.0420 ca         1 ET1      -0.087000
     14 O10          1.9030    -4.2230    -0.5840 os         1 ET1      -0.341100
     15 C11          1.2890    -5.4910    -0.4830 c3         1 ET1       0.154900
     16 C12          3.1460     1.0930    -0.0020 c3         1 ET1      -0.008200
     17 C14          4.0930     1.8950    -2.2740 c          1 ET1       0.718000
     18 C16         -2.3140     0.8670     0.8590 ca         1 ET1      -0.352500
     19 C18         -3.8220    -0.1590    -0.7000 ca         1 ET1      -0.197000
     20 C19         -3.5930     0.8830    -1.5990 ca         1 ET1       0.198100
     21 O22         -2.0100    -0.1840     3.2400 o          1 ET1      -0.543000
     22 O23         -1.2510     2.1830     2.8650 o          1 ET1      -0.543000
     23 O24          5.1570     2.0840    -1.6530 o          1 ET1      -0.737500
     24 O25          3.8870     2.1290    -3.4830 o          1 ET1      -0.737500
     25 O26         -4.1620     0.9760    -2.8020 os         1 ET1      -0.333100
     26 C27         -5.0540    -0.0440    -3.2220 c3         1 ET1       0.148900
     27 H13          2.6020     0.3750    -1.9690 hc         1 ET1       0.020200
     28 H13A         2.0400     1.9820    -1.6210 hc         1 ET1       0.020200
     29 H21         -1.4130     2.7280     0.2220 ha         1 ET1       0.136500
     30 H02          1.0690     2.2080     1.7760 h4         1 ET1       0.237000
     31 H07         -0.3360    -4.2170     0.9460 ha         1 ET1       0.106000
     32 H08         -1.2130    -2.2890     2.1200 ha         1 ET1       0.128000
     33 H09          2.9230    -1.8960    -0.6330 ha         1 ET1       0.150000
     34 H11          1.8940    -6.1740    -1.0740 h1         1 ET1       0.032033
     35 H11A         1.2600    -5.8520     0.5480 h1         1 ET1       0.032033
     36 H11B         0.2720    -5.4890    -0.8840 h1         1 ET1       0.032033
     37 H12          4.0020     0.4290     0.1350 hc         1 ET1       0.056700
     38 H12A         3.4130     2.0400     0.4710 hc         1 ET1       0.056700
     39 H18         -4.4970    -0.9700    -0.9340 ha         1 ET1       0.127000
     40 H27         -5.3900     0.2350    -4.2160 h1         1 ET1       0.042700
     41 H27A        -4.5590    -1.0160    -3.2730 h1         1 ET1       0.042700
     42 H27B        -5.9210    -0.1190    -2.5630 h1         1 ET1       0.042700
     43 H17         -3.3680    -0.9760     1.2170 ha         1 ET1       0.136500
     44 S15         -1.4400     0.8320     2.3770 sy         1 ET1       1.184700
     45 H20         -2.5460     2.7290    -1.9510 ha         1 ET1       0.127000
@<TRIPOS>BOND
     1     1    16 1   
     2     1    17 1   
     3     1    27 1   
     4     1    28 1   
     5     2    18 ar  
     6     2    19 ar  
     7     2    43 1   
     8     3     4 ar  
     9     3    20 ar  
    10     3    45 1   
    11     4    18 ar  
    12     4    29 1   
    13     5     6 1   
    14     5     9 1   
    15     5    44 1   
    16     6     7 2   
    17     6    30 1   
    18     7     8 1   
    19     7    16 1   
    20     8     9 ar  
    21     8    13 ar  
    22     9    12 ar  
    23    10    11 ar  
    24    10    13 ar  
    25    10    14 1   
    26    11    12 ar  
    27    11    31 1   
    28    12    32 1   
    29    13    33 1   
    30    14    15 1   
    31    15    34 1   
    32    15    35 1   
    33    15    36 1   
    34    16    37 1   
    35    16    38 1   
    36    17    23 1   
    37    17    24 1   
    38    18    44 1   
    39    19    20 ar  
    40    19    39 1   
    41    20    25 1   
    42    21    44 2   
    43    22    44 2   
    44    25    26 1   
    45    26    40 1   
    46    26    41 1   
    47    26    42 1   
@<TRIPOS>SUBSTRUCTURE
     1 ET1         1 TEMP              0 ****  ****    0 ROOT
