@<TRIPOS>MOLECULE
ET2
   17    18     1     0     0
SMALL
abcg2


@<TRIPOS>ATOM
      1 NAA          3.6670     0.2990     0.1400 nv         1 ET2      -1.005200
      2 CAC         -1.9560    -1.1710    -0.0420 ca         1 ET2      -0.165000
      3 CAD         -0.6740    -1.7070    -0.0160 ca         1 ET2      -0.039000
      4 CAE         -1.0810     1.1090    -0.0120 ca         1 ET2      -0.156000
      5 NAF          1.4380     1.1040     0.0430 na         1 ET2      -0.349600
      6 NAG          1.7630    -1.1030     0.0360 nc         1 ET2      -0.631100
      7 CAH         -2.1290     0.2070    -0.0390 ca         1 ET2       0.173000
      8 CAI          2.3340     0.0740     0.0540 cd         1 ET2       0.629700
      9 CAJ          0.1840     0.5480     0.0140 ca         1 ET2      -0.060200
     10 CAK          0.4120    -0.8410     0.0120 ca         1 ET2       0.086400
     11 HNAA         4.0120     1.1780    -0.2100 hn         1 ET2       0.475000
     12 HNAB         4.2460    -0.4850    -0.1150 hn         1 ET2       0.475000
     13 HAC         -2.8210    -1.8200    -0.0650 ha         1 ET2       0.132000
     14 HAD         -0.5300    -2.7800    -0.0200 ha         1 ET2       0.132000
     15 HAE         -1.2500     2.1780    -0.0110 ha         1 ET2       0.133000
     16 HNAF         1.6590     2.0870     0.0590 hn         1 ET2       0.356000
     17 FAB         -3.3870     0.6940    -0.0630 f          1 ET2      -0.183000
@<TRIPOS>BOND
     1     1     8 1   
     2     1    11 1   
     3     1    12 1   
     4     2     3 ar  
     5     2     7 ar  
     6     2    13 1   
     7     3    10 ar  
     8     3    14 1   
     9     4     7 ar  
    10     4     9 ar  
    11     4    15 1   
    12     5     8 1   
    13     5     9 1   
    14     5    16 1   
    15     6     8 2   
    16     6    10 1   
    17     7    17 1   
    18     9    10 ar  
@<TRIPOS>SUBSTRUCTURE
     1 ET2         1 TEMP              0 ****  ****    0 ROOT
