@<TRIPOS>MOLECULE
ET2
   17    18     1     0     0
SMALL
No Charge or Current Charge


@<TRIPOS>ATOM
      1 NAA          3.6340     0.2750     0.0990 nv         1 ET2      -1.005200
      2 CAC         -1.9630    -1.1810    -0.0450 ca         1 ET2      -0.165000
      3 CAD         -0.6540    -1.7130    -0.0150 ca         1 ET2      -0.039000
      4 CAE         -1.0630     1.0980    -0.0120 ca         1 ET2      -0.156000
      5 NAF          1.4330     1.1600     0.0490 na         1 ET2      -0.349600
      6 NAG          1.7850    -1.1240     0.0480 nc         1 ET2      -0.631100
      7 CAH         -2.1620     0.2180    -0.0430 ca         1 ET2       0.173000
      8 CAI          2.3130     0.0940     0.0670 cd         1 ET2       0.629700
      9 CAJ          0.2180     0.5330     0.0160 ca         1 ET2      -0.060200
     10 CAK          0.4310    -0.8220     0.0150 ca         1 ET2       0.086400
     11 HNAA         3.9940     1.1700    -0.2110 hn         1 ET2       0.475000
     12 HNAB         4.2020    -0.5370    -0.1130 hn         1 ET2       0.475000
     13 HAC         -2.8210    -1.8480    -0.0690 ha         1 ET2       0.132000
     14 HAD         -0.4870    -2.7870    -0.0160 ha         1 ET2       0.132000
     15 HAE         -1.2100     2.1750    -0.0110 ha         1 ET2       0.133000
     16 HNAF         1.6520     2.1450     0.0780 hn         1 ET2       0.356000
     17 FAB         -3.4170     0.7150    -0.0720 f          1 ET2      -0.183000
@<TRIPOS>BOND
     1     1     8 1   
     2     1    11 1   
     3     1    12 1   
     4     2     3 ar  
     5     2     7 ar  
     6     2    13 1   
     7     3    10 ar  
     8     3    14 1   
     9     4     7 ar  
    10     4     9 ar  
    11     4    15 1   
    12     5     8 1   
    13     5     9 1   
    14     5    16 1   
    15     6     8 2   
    16     6    10 1   
    17     7    17 1   
    18     9    10 ar  
@<TRIPOS>SUBSTRUCTURE
     1 ET2         1 TEMP              0 ****  ****    0 ROOT
