@<TRIPOS>MOLECULE
ET3
   83    85     1     0     0
SMALL
No Charge or Current Charge


@<TRIPOS>ATOM
      1 C10         -0.5910    36.5060    21.6040 ca         1 ET3      -0.060000
      2 C13         -0.1180    38.0450    23.9170 ca         1 ET3       0.106100
      3 C15         -0.3340    38.4690    26.3500 c3         1 ET3       0.133900
      4 C17         -1.0570    33.7020    24.1800 ca         1 ET3      -0.308600
      5 C20         -0.6260    32.0620    26.4290 ca         1 ET3       0.210100
      6 C21          0.4840    32.6750    25.8030 ca         1 ET3      -0.139300
      7 C22          1.8950    32.3820    26.3500 c3         1 ET3      -0.022100
      8 C24          0.2720    33.5160    24.6690 ca         1 ET3       0.065700
      9 C26          2.0590    35.4030    24.6260 c          1 ET3       0.621100
     10 C28          3.3660    37.5580    24.4640 c3         1 ET3       0.100500
     11 C02          5.8780    41.4420    23.3780 c6         1 ET3       0.153600
     12 C03          4.5440    42.0070    22.8060 c6         1 ET3       0.128300
     13 C05          2.3990    41.4390    21.6840 c3         1 ET3       0.172800
     14 C06          1.3470    40.3510    21.3440 c3         1 ET3       0.161600
     15 C08          0.2380    38.5510    22.6450 ca         1 ET3       0.135100
     16 C09         -0.0410    37.7910    21.4880 ca         1 ET3      -0.205000
     17 C11         -0.8630    35.9560    22.8710 ca         1 ET3      -0.174600
     18 C12         -0.6680    36.7470    24.0240 ca         1 ET3      -0.128000
     19 C16         -1.3810    34.5440    22.9730 c          1 ET3       0.622300
     20 C18         -2.1250    33.0370    24.8080 ca         1 ET3       0.242100
     21 C19         -1.9150    32.2440    25.9310 ca         1 ET3      -0.279000
     22 C23          2.4940    31.0890    25.7630 c3         1 ET3      -0.086100
     23 C25          1.4800    34.1410    23.9460 c3         1 ET3      -0.127100
     24 C29          4.7810    37.5830    25.0920 c3         1 ET3       0.130600
     25 C31          6.1230    36.5320    26.8090 c3         1 ET3       0.146400
     26 C32          3.6250    35.8050    22.6520 c3         1 ET3       0.100500
     27 C33          2.9630    36.3440    21.3700 c3         1 ET3       0.130600
     28 C35          3.3600    36.5640    19.0000 c3         1 ET3       0.146400
     29 C40          4.4910    40.1450    21.2030 c6         1 ET3       0.128300
     30 C41          5.8320    39.6240    21.7970 c6         1 ET3       0.153600
     31 N04          3.7000    40.9280    22.2080 n3         1 ET3      -0.705600
     32 N27          2.9450    36.2420    23.9010 n          1 ET3      -0.410800
     33 O01          6.5980    40.7200    22.3510 os         1 ET3      -0.450000
     34 O07          0.8890    39.7700    22.5810 os         1 ET3      -0.304100
     35 O14          0.1030    38.8410    25.0310 os         1 ET3      -0.322100
     36 O30          4.8480    36.6110    26.1510 os         1 ET3      -0.446000
     37 O34          3.8450    36.0890    20.2660 os         1 ET3      -0.446000
     38 O36          1.7300    35.6890    25.7700 o          1 ET3      -0.588100
     39 O37         -0.4650    31.2540    27.5160 oh         1 ET3      -0.525100
     40 O38         -3.3910    33.1380    24.3230 oh         1 ET3      -0.547100
     41 O39         -2.1170    34.0880    22.1050 o          1 ET3      -0.580100
     42 H1          -0.7710    35.9200    20.7030 ha         1 ET3       0.128000
     43 H2          -0.0910    39.2630    27.0670 h1         1 ET3       0.049367
     44 H3          -1.4200    38.3140    26.3720 h1         1 ET3       0.049367
     45 H4           0.1600    37.5500    26.6860 h1         1 ET3       0.049367
     46 H5           1.8730    32.2910    27.4430 hc         1 ET3       0.058700
     47 H6           2.5930    33.2050    26.1660 hc         1 ET3       0.058700
     48 H7           3.3340    38.3040    23.6600 h1         1 ET3       0.063450
     49 H8           2.6440    37.8920    25.2190 h1         1 ET3       0.063450
     50 H9           6.5050    42.2650    23.7470 h1         1 ET3       0.051450
     51 H10          5.6690    40.7660    24.2190 h1         1 ET3       0.051450
     52 H11          4.7780    42.7710    22.0510 h1         1 ET3       0.038950
     53 H12          3.9980    42.5100    23.6180 h1         1 ET3       0.038950
     54 H13          2.5780    42.0350    20.7790 h1         1 ET3       0.043700
     55 H14          1.9430    42.1160    22.4190 h1         1 ET3       0.043700
     56 H15          0.5060    40.8030    20.8040 h1         1 ET3       0.033200
     57 H16          1.8090    39.6000    20.6930 h1         1 ET3       0.033200
     58 H17          0.1850    38.1650    20.4950 ha         1 ET3       0.118000
     59 H18         -0.9220    36.3310    24.9950 ha         1 ET3       0.148000
     60 H19         -2.7630    31.7530    26.4000 ha         1 ET3       0.133000
     61 H20          3.4970    30.9130    26.1690 hc         1 ET3       0.030700
     62 H21          1.8670    30.2240    26.0110 hc         1 ET3       0.030700
     63 H22          2.5710    31.1550    24.6710 hc         1 ET3       0.030700
     64 H23          2.3010    33.4280    23.8310 hc         1 ET3       0.073700
     65 H24          1.2870    34.3600    22.8930 hc         1 ET3       0.073700
     66 H25          5.5310    37.3630    24.3220 h1         1 ET3       0.027950
     67 H26          4.9800    38.5900    25.4800 h1         1 ET3       0.027950
     68 H27          6.0960    35.7730    27.6010 h1         1 ET3       0.028367
     69 H28          6.9120    36.2560    26.0970 h1         1 ET3       0.028367
     70 H29          6.3860    37.4950    27.2650 h1         1 ET3       0.028367
     71 H30          3.6790    34.7120    22.6020 h1         1 ET3       0.063450
     72 H31          4.6610    36.1640    22.6730 h1         1 ET3       0.063450
     73 H32          2.7870    37.4220    21.4780 h1         1 ET3       0.027950
     74 H33          1.9990    35.8460    21.2180 h1         1 ET3       0.027950
     75 H34          4.0810    36.3360    18.2050 h1         1 ET3       0.028367
     76 H35          2.4060    36.0850    18.7440 h1         1 ET3       0.028367
     77 H36          3.2090    37.6510    19.0230 h1         1 ET3       0.028367
     78 H37          3.9200    39.2790    20.8420 h1         1 ET3       0.038950
     79 H38          4.7150    40.7700    20.3260 h1         1 ET3       0.038950
     80 H39          5.6300    38.8870    22.5870 h1         1 ET3       0.051450
     81 H40          6.4230    39.1310    21.0130 h1         1 ET3       0.051450
     82 H42         -1.3480    30.9290    27.7870 ho         1 ET3       0.469000
     83 H43         -3.3090    33.4470    23.3890 ho         1 ET3       0.510000
@<TRIPOS>BOND
     1     1    16 ar  
     2     1    17 ar  
     3     1    42 1   
     4     2    15 ar  
     5     2    18 ar  
     6     2    35 1   
     7     3    35 1   
     8     3    43 1   
     9     3    44 1   
    10     3    45 1   
    11     4     8 ar  
    12     4    19 1   
    13     4    20 ar  
    14     5     6 ar  
    15     5    21 ar  
    16     5    39 1   
    17     6     7 1   
    18     6     8 ar  
    19     7    22 1   
    20     7    46 1   
    21     7    47 1   
    22     8    23 1   
    23     9    23 1   
    24     9    32 1   
    25     9    38 2   
    26    10    24 1   
    27    10    32 1   
    28    10    48 1   
    29    10    49 1   
    30    11    12 1   
    31    11    33 1   
    32    11    50 1   
    33    11    51 1   
    34    12    31 1   
    35    12    52 1   
    36    12    53 1   
    37    13    14 1   
    38    13    31 1   
    39    13    54 1   
    40    13    55 1   
    41    14    34 1   
    42    14    56 1   
    43    14    57 1   
    44    15    16 ar  
    45    15    34 1   
    46    16    58 1   
    47    17    18 ar  
    48    17    19 1   
    49    18    59 1   
    50    19    41 2   
    51    20    21 ar  
    52    20    40 1   
    53    21    60 1   
    54    22    61 1   
    55    22    62 1   
    56    22    63 1   
    57    23    64 1   
    58    23    65 1   
    59    24    36 1   
    60    24    66 1   
    61    24    67 1   
    62    25    36 1   
    63    25    68 1   
    64    25    69 1   
    65    25    70 1   
    66    26    27 1   
    67    26    32 1   
    68    26    71 1   
    69    26    72 1   
    70    27    37 1   
    71    27    73 1   
    72    27    74 1   
    73    28    37 1   
    74    28    75 1   
    75    28    76 1   
    76    28    77 1   
    77    29    30 1   
    78    29    31 1   
    79    29    78 1   
    80    29    79 1   
    81    30    33 1   
    82    30    80 1   
    83    30    81 1   
    84    39    82 1   
    85    40    83 1   
@<TRIPOS>SUBSTRUCTURE
     1 ET3         1 TEMP              0 ****  ****    0 ROOT
