@<TRIPOS>MOLECULE
ET3
   83    85     1     0     0
SMALL
abcg2


@<TRIPOS>ATOM
      1 C10         -0.6010    36.5590    21.5340 ca         1 ET3      -0.060000
      2 C13          0.1500    38.1860    23.6700 ca         1 ET3       0.106100
      3 C15          0.1910    38.7630    25.9680 c3         1 ET3       0.133900
      4 C17         -0.9700    33.8990    24.1990 ca         1 ET3      -0.308600
      5 C20         -0.4920    32.2290    26.3840 ca         1 ET3       0.210100
      6 C21          0.6010    32.8500    25.7550 ca         1 ET3      -0.139300
      7 C22          1.9910    32.4850    26.2200 c3         1 ET3      -0.022100
      8 C24          0.3480    33.6970    24.6810 ca         1 ET3       0.065700
      9 C26          2.2400    35.3820    24.7470 c          1 ET3       0.621100
     10 C28          4.1100    36.9150    24.9170 c3         1 ET3       0.100500
     11 C02          5.0400    42.4720    23.0380 c6         1 ET3       0.153600
     12 C03          3.8390    42.6880    22.1370 c6         1 ET3       0.128300
     13 C05          1.9940    41.5980    21.0670 c3         1 ET3       0.172800
     14 C06          1.1740    40.3350    20.9170 c3         1 ET3       0.161600
     15 C08          0.3200    38.6350    22.3410 ca         1 ET3       0.135100
     16 C09         -0.0730    37.8200    21.2890 ca         1 ET3      -0.205000
     17 C11         -0.7130    36.0900    22.8350 ca         1 ET3      -0.174600
     18 C12         -0.3470    36.9170    23.9030 ca         1 ET3      -0.128000
     19 C16         -1.3490    34.7760    23.0760 c          1 ET3       0.622300
     20 C18         -2.0220    33.1590    24.7920 ca         1 ET3       0.242100
     21 C19         -1.7840    32.3790    25.9110 ca         1 ET3      -0.279000
     22 C23          2.4990    31.1960    25.5730 c3         1 ET3      -0.086100
     23 C25          1.5400    34.2770    23.9620 c3         1 ET3      -0.127100
     24 C29          5.2880    36.3010    25.6490 c3         1 ET3       0.130600
     25 C31          5.8840    34.6830    27.2180 c3         1 ET3       0.146400
     26 C32          3.8560    35.5440    22.8800 c3         1 ET3       0.100500
     27 C33          3.2400    36.3850    21.7740 c3         1 ET3       0.130600
     28 C35          3.2240    36.6590    19.4550 c3         1 ET3       0.146400
     29 C40          4.1500    40.5060    21.2580 c6         1 ET3       0.128300
     30 C41          5.3460    40.3380    22.1770 c6         1 ET3       0.153600
     31 N04          3.1950    41.4190    21.8520 n3         1 ET3      -0.705600
     32 N27          3.3410    35.9280    24.1800 n          1 ET3      -0.410800
     33 O01          5.9630    41.5700    22.4660 os         1 ET3      -0.450000
     34 O07          0.8600    39.8520    22.2110 os         1 ET3      -0.304100
     35 O14          0.4940    39.0700    24.6200 os         1 ET3      -0.322100
     36 O30          4.8320    35.3640    26.5860 os         1 ET3      -0.446000
     37 O34          3.8010    35.9960    20.5510 os         1 ET3      -0.446000
     38 O36          1.8270    35.7320    25.8400 o          1 ET3      -0.588100
     39 O37         -0.2320    31.4440    27.4390 oh         1 ET3      -0.525100
     40 O38         -3.2790    33.1890    24.3400 oh         1 ET3      -0.547100
     41 O39         -2.2890    34.4570    22.3450 o          1 ET3      -0.580100
     42 H1          -0.9000    35.9400    20.6990 ha         1 ET3       0.128000
     43 H2           0.4830    39.6330    26.5520 h1         1 ET3       0.049367
     44 H3          -0.8790    38.5870    26.1110 h1         1 ET3       0.049367
     45 H4           0.7470    37.8940    26.3210 h1         1 ET3       0.049367
     46 H5           1.9940    32.3630    27.3040 hc         1 ET3       0.058700
     47 H6           2.7040    33.2850    26.0330 hc         1 ET3       0.058700
     48 H7           4.5010    37.6560    24.2170 h1         1 ET3       0.063450
     49 H8           3.4570    37.4460    25.6070 h1         1 ET3       0.063450
     50 H9           5.5630    43.4160    23.1990 h1         1 ET3       0.051450
     51 H10          4.7000    42.1020    24.0150 h1         1 ET3       0.051450
     52 H11          4.1580    43.2060    21.2160 h1         1 ET3       0.038950
     53 H12          3.1320    43.3460    22.6490 h1         1 ET3       0.038950
     54 H13          2.2030    41.9670    20.0480 h1         1 ET3       0.043700
     55 H14          1.3830    42.3640    21.5520 h1         1 ET3       0.043700
     56 H15          0.2630    40.5670    20.3550 h1         1 ET3       0.033200
     57 H16          1.7190    39.5780    20.3430 h1         1 ET3       0.033200
     58 H17          0.0230    38.1510    20.2650 ha         1 ET3       0.118000
     59 H18         -0.4850    36.5620    24.9140 ha         1 ET3       0.148000
     60 H19         -2.6090    31.8490    26.3750 ha         1 ET3       0.133000
     61 H20          3.4940    30.9470    25.9420 hc         1 ET3       0.030700
     62 H21          1.8420    30.3530    25.7900 hc         1 ET3       0.030700
     63 H22          2.5630    31.2930    24.4880 hc         1 ET3       0.030700
     64 H23          2.2560    33.4690    23.7850 hc         1 ET3       0.073700
     65 H24          1.2760    34.6290    22.9670 hc         1 ET3       0.073700
     66 H25          5.9680    35.8250    24.9270 h1         1 ET3       0.027950
     67 H26          5.8600    37.1070    26.1310 h1         1 ET3       0.027950
     68 H27          5.4510    33.9720    27.9210 h1         1 ET3       0.028367
     69 H28          6.5030    34.1290    26.5020 h1         1 ET3       0.028367
     70 H29          6.5420    35.3620    27.7730 h1         1 ET3       0.028367
     71 H30          3.6820    34.4860    22.6870 h1         1 ET3       0.063450
     72 H31          4.9400    35.6750    22.8840 h1         1 ET3       0.063450
     73 H32          3.4210    37.4520    21.9730 h1         1 ET3       0.027950
     74 H33          2.1510    36.2540    21.7710 h1         1 ET3       0.027950
     75 H34          3.6910    36.2830    18.5460 h1         1 ET3       0.028367
     76 H35          2.1440    36.4830    19.3920 h1         1 ET3       0.028367
     77 H36          3.3830    37.7440    19.4980 h1         1 ET3       0.028367
     78 H37          3.6960    39.5230    21.1210 h1         1 ET3       0.038950
     79 H38          4.4850    40.8460    20.2620 h1         1 ET3       0.038950
     80 H39          5.0160    39.8460    23.1050 h1         1 ET3       0.051450
     81 H40          6.0930    39.6980    21.7060 h1         1 ET3       0.051450
     82 H42         -1.0470    31.0630    27.7870 ho         1 ET3       0.469000
     83 H43         -3.2650    33.5970    23.4510 ho         1 ET3       0.510000
@<TRIPOS>BOND
     1     1    16 ar  
     2     1    17 ar  
     3     1    42 1   
     4     2    15 ar  
     5     2    18 ar  
     6     2    35 1   
     7     3    35 1   
     8     3    43 1   
     9     3    44 1   
    10     3    45 1   
    11     4     8 ar  
    12     4    19 1   
    13     4    20 ar  
    14     5     6 ar  
    15     5    21 ar  
    16     5    39 1   
    17     6     7 1   
    18     6     8 ar  
    19     7    22 1   
    20     7    46 1   
    21     7    47 1   
    22     8    23 1   
    23     9    23 1   
    24     9    32 1   
    25     9    38 2   
    26    10    24 1   
    27    10    32 1   
    28    10    48 1   
    29    10    49 1   
    30    11    12 1   
    31    11    33 1   
    32    11    50 1   
    33    11    51 1   
    34    12    31 1   
    35    12    52 1   
    36    12    53 1   
    37    13    14 1   
    38    13    31 1   
    39    13    54 1   
    40    13    55 1   
    41    14    34 1   
    42    14    56 1   
    43    14    57 1   
    44    15    16 ar  
    45    15    34 1   
    46    16    58 1   
    47    17    18 ar  
    48    17    19 1   
    49    18    59 1   
    50    19    41 2   
    51    20    21 ar  
    52    20    40 1   
    53    21    60 1   
    54    22    61 1   
    55    22    62 1   
    56    22    63 1   
    57    23    64 1   
    58    23    65 1   
    59    24    36 1   
    60    24    66 1   
    61    24    67 1   
    62    25    36 1   
    63    25    68 1   
    64    25    69 1   
    65    25    70 1   
    66    26    27 1   
    67    26    32 1   
    68    26    71 1   
    69    26    72 1   
    70    27    37 1   
    71    27    73 1   
    72    27    74 1   
    73    28    37 1   
    74    28    75 1   
    75    28    76 1   
    76    28    77 1   
    77    29    30 1   
    78    29    31 1   
    79    29    78 1   
    80    29    79 1   
    81    30    33 1   
    82    30    80 1   
    83    30    81 1   
    84    39    82 1   
    85    40    83 1   
@<TRIPOS>SUBSTRUCTURE
     1 ET3         1 TEMP              0 ****  ****    0 ROOT
