@<TRIPOS>MOLECULE
ET4
   96    97     1     0     0
SMALL
abcg2


@<TRIPOS>ATOM
      1 C10        197.1700   318.4970   200.7450 ce         1 ET4      -0.191000
      2 C11        198.4510   317.8560   200.8700 ce         1 ET4      -0.163000
      3 C12        198.5690   316.5360   201.1360 cf         1 ET4      -0.183000
      4 C13        199.8040   315.8000   201.2740 cf         1 ET4      -0.057200
      5 C14        199.7210   314.4600   201.4910 ce         1 ET4      -0.183000
      6 C15        200.7970   313.5290   201.6470 ce         1 ET4      -0.166000
      7 C18        201.5440   309.9160   202.1770 ce         1 ET4      -0.067200
      8 C17        201.6550   311.2580   201.9860 cf         1 ET4      -0.172000
      9 C16        200.5910   312.2020   201.8270 cf         1 ET4      -0.176000
     10 C01        192.5250   321.1250   200.1410 c6         1 ET4       0.012200
     11 C02        190.9950   321.1970   200.3160 c6         1 ET4      -0.066400
     12 C03        190.5030   321.4070   201.7310 c6         1 ET4       0.178300
     13 C04        191.0270   320.2690   202.5860 c6         1 ET4      -0.076200
     14 C05        192.4670   319.9140   202.3540 c2         1 ET4      -0.098400
     15 C06        193.1700   320.3130   201.2660 ce         1 ET4      -0.058200
     16 C07        194.5760   319.9200   201.1960 ce         1 ET4      -0.160000
     17 C08        195.5610   320.3070   200.3630 cf         1 ET4      -0.188000
     18 C09        196.9270   319.7860   200.4120 cf         1 ET4      -0.058200
     19 C19        202.7590   309.1510   202.3260 ce         1 ET4      -0.168000
     20 C20        202.8300   307.8200   202.5530 cf         1 ET4      -0.176000
     21 C21        204.0810   307.1320   202.7030 cf         1 ET4      -0.167000
     22 C22        204.2480   305.8120   202.9650 ce         1 ET4       0.047100
     23 C23        205.5600   305.2880   203.0870 cg         1 ET4      -0.170300
     24 C25        193.1030   322.5480   200.0730 c3         1 ET4      -0.082100
     25 C26        192.7410   320.4340   198.7830 c3         1 ET4      -0.082100
     26 C27        197.9930   320.7740   200.0390 c3         1 ET4      -0.055900
     27 C28        201.0980   316.5480   201.1610 c3         1 ET4      -0.055900
     28 C29        203.1380   304.8150   203.1480 c3         1 ET4      -0.050900
     29 C30        200.2340   309.1900   202.2430 c3         1 ET4      -0.054900
     30 C32        206.6570   304.7840   203.1970 ch         1 ET4      -0.133300
     31 C33        207.9680   304.2470   203.3100 cf         1 ET4       0.025100
     32 C34        209.1100   305.2030   202.9720 c6         1 ET4       0.005200
     33 C35        210.4290   304.4310   202.8550 c6         1 ET4      -0.069400
     34 C36        210.6160   303.4280   203.9720 c6         1 ET4       0.174300
     35 C37        209.5170   302.3810   203.8830 c6         1 ET4      -0.081200
     36 C38        208.1490   302.9740   203.7180 c2         1 ET4      -0.079400
     37 C39        207.0230   302.0450   204.0350 c3         1 ET4      -0.056900
     38 C41        208.8430   305.8930   201.6310 c3         1 ET4      -0.082600
     39 C42        209.2030   306.2780   204.0620 c3         1 ET4      -0.082600
     40 O31        190.9240   322.6720   202.2000 oh         1 ET4      -0.654000
     41 O40        211.9020   302.8580   203.8490 oh         1 ET4      -0.659000
     42 H1         196.3110   317.8530   200.9180 ha         1 ET4       0.171000
     43 H2         199.3460   318.4540   200.7440 ha         1 ET4       0.173000
     44 H3         197.6550   315.9570   201.2530 ha         1 ET4       0.169000
     45 H4         198.7230   314.0320   201.5480 ha         1 ET4       0.168000
     46 H5         201.8200   313.8920   201.6190 ha         1 ET4       0.172000
     47 H6         202.6600   311.6720   201.9540 ha         1 ET4       0.169000
     48 H7         199.5660   311.8450   201.8510 ha         1 ET4       0.172000
     49 H8         190.6000   321.9700   199.6510 hc         1 ET4       0.047700
     50 H9         190.5540   320.2540   199.9770 hc         1 ET4       0.047700
     51 H10        189.4050   321.3580   201.7260 h1         1 ET4       0.027700
     52 H11        190.8790   320.4960   203.6490 hc         1 ET4       0.048700
     53 H12        190.4170   319.3740   202.4080 hc         1 ET4       0.048700
     54 H13        194.8840   319.2170   201.9600 ha         1 ET4       0.167000
     55 H14        195.3970   321.0770   199.6200 ha         1 ET4       0.179000
     56 H15        203.6890   309.7100   202.2550 ha         1 ET4       0.171000
     57 H16        201.9140   307.2460   202.6320 ha         1 ET4       0.174000
     58 H17        204.9760   307.7380   202.6000 ha         1 ET4       0.176000
     59 H18        192.2260   318.6390   204.0600 hc         1 ET4       0.040700
     60 H19        193.6420   318.2320   203.1160 hc         1 ET4       0.040700
     61 H20        193.6500   319.6560   204.1460 hc         1 ET4       0.040700
     62 H21        193.0040   323.0720   201.0200 hc         1 ET4       0.036533
     63 H22        194.1560   322.5570   199.7980 hc         1 ET4       0.036533
     64 H23        192.5730   323.1280   199.3130 hc         1 ET4       0.036533
     65 H24        193.7780   320.4400   198.4550 hc         1 ET4       0.036533
     66 H25        192.4060   319.3960   198.8150 hc         1 ET4       0.036533
     67 H26        192.1570   320.9470   198.0150 hc         1 ET4       0.036533
     68 H27        197.7550   321.2400   199.0800 hc         1 ET4       0.042033
     69 H28        198.0450   321.5840   200.7710 hc         1 ET4       0.042033
     70 H29        198.9850   320.3370   199.9550 hc         1 ET4       0.042033
     71 H30        201.9690   315.9100   201.2820 hc         1 ET4       0.042700
     72 H31        201.1810   317.0380   200.1890 hc         1 ET4       0.042700
     73 H32        201.1600   317.3350   201.9160 hc         1 ET4       0.042700
     74 H33        203.1880   304.3670   204.1430 hc         1 ET4       0.045033
     75 H34        202.1510   305.2520   203.0290 hc         1 ET4       0.045033
     76 H35        203.2330   304.0000   202.4280 hc         1 ET4       0.045033
     77 H36        200.1650   308.4380   201.4540 hc         1 ET4       0.042367
     78 H37        200.1260   308.6620   203.1920 hc         1 ET4       0.042367
     79 H38        199.3770   309.8500   202.1380 hc         1 ET4       0.042367
     80 H40        210.4520   303.8950   201.8990 hc         1 ET4       0.056700
     81 H41        211.2570   305.1460   202.8390 hc         1 ET4       0.056700
     82 H42        210.5240   303.9420   204.9390 h1         1 ET4       0.033700
     83 H43        209.7170   301.7120   203.0360 hc         1 ET4       0.054700
     84 H44        209.5240   301.7440   204.7740 hc         1 ET4       0.054700
     85 H46        207.1410   301.1050   203.4900 hc         1 ET4       0.045367
     86 H47        207.0320   301.7870   205.0980 hc         1 ET4       0.045367
     87 H48        206.0450   302.4570   203.7960 hc         1 ET4       0.045367
     88 H49        208.7020   305.1640   200.8310 hc         1 ET4       0.037867
     89 H50        207.9580   306.5290   201.6700 hc         1 ET4       0.037867
     90 H51        209.6920   306.5240   201.3630 hc         1 ET4       0.037867
     91 H52        209.4250   305.8540   205.0420 hc         1 ET4       0.037867
     92 H53        209.9890   306.9980   203.8220 hc         1 ET4       0.037867
     93 H54        208.2650   306.8300   204.1450 hc         1 ET4       0.037867
     94 H55        190.6280   322.7690   203.1100 ho         1 ET4       0.438000
     95 H56        212.0370   302.2530   204.5850 ho         1 ET4       0.442000
     96 C24        193.0330   319.0650   203.4650 c3         1 ET4      -0.056900
@<TRIPOS>BOND
     1     1     2 1   
     2     1    18 2   
     3     1    42 1   
     4     2     3 2   
     5     2    43 1   
     6     3     4 1   
     7     3    44 1   
     8     4     5 2   
     9     4    27 1   
    10     5     6 1   
    11     5    45 1   
    12     6     9 2   
    13     6    46 1   
    14     7     8 2   
    15     7    19 1   
    16     7    29 1   
    17     8     9 1   
    18     8    47 1   
    19     9    48 1   
    20    10    11 1   
    21    10    15 1   
    22    10    24 1   
    23    10    25 1   
    24    11    12 1   
    25    11    49 1   
    26    11    50 1   
    27    12    13 1   
    28    12    40 1   
    29    12    51 1   
    30    13    14 1   
    31    13    52 1   
    32    13    53 1   
    33    14    15 2   
    34    14    96 1   
    35    15    16 1   
    36    16    17 2   
    37    16    54 1   
    38    17    18 1   
    39    17    55 1   
    40    18    26 1   
    41    19    20 2   
    42    19    56 1   
    43    20    21 1   
    44    20    57 1   
    45    21    22 2   
    46    21    58 1   
    47    22    23 1   
    48    22    28 1   
    49    23    30 3   
    50    24    62 1   
    51    24    63 1   
    52    24    64 1   
    53    25    65 1   
    54    25    66 1   
    55    25    67 1   
    56    26    68 1   
    57    26    69 1   
    58    26    70 1   
    59    27    71 1   
    60    27    72 1   
    61    27    73 1   
    62    28    74 1   
    63    28    75 1   
    64    28    76 1   
    65    29    77 1   
    66    29    78 1   
    67    29    79 1   
    68    30    31 1   
    69    31    32 1   
    70    31    36 2   
    71    32    33 1   
    72    32    38 1   
    73    32    39 1   
    74    33    34 1   
    75    33    80 1   
    76    33    81 1   
    77    34    35 1   
    78    34    41 1   
    79    34    82 1   
    80    35    36 1   
    81    35    83 1   
    82    35    84 1   
    83    36    37 1   
    84    37    85 1   
    85    37    86 1   
    86    37    87 1   
    87    38    88 1   
    88    38    89 1   
    89    38    90 1   
    90    39    91 1   
    91    39    92 1   
    92    39    93 1   
    93    40    94 1   
    94    41    95 1   
    95    59    96 1   
    96    60    96 1   
    97    61    96 1   
@<TRIPOS>SUBSTRUCTURE
     1 ET4         1 TEMP              0 ****  ****    0 ROOT
