@<TRIPOS>MOLECULE
ET4
   96    97     1     0     0
SMALL
No Charge or Current Charge


@<TRIPOS>ATOM
      1 C10        196.9690   318.4120   201.1740 ce         1 ET4      -0.191000
      2 C11        198.2480   317.6880   201.2370 ce         1 ET4      -0.163000
      3 C12        198.3620   316.3760   201.5910 cf         1 ET4      -0.183000
      4 C13        199.5910   315.5800   201.6710 cf         1 ET4      -0.057200
      5 C14        199.5140   314.2210   201.7920 ce         1 ET4      -0.183000
      6 C15        200.6320   313.2670   201.8840 ce         1 ET4      -0.166000
      7 C18        201.5060   309.6200   202.2770 ce         1 ET4      -0.067200
      8 C17        201.5850   310.9790   202.1560 cf         1 ET4      -0.172000
      9 C16        200.4770   311.9280   202.0640 cf         1 ET4      -0.176000
     10 C01        192.5560   321.3140   199.8490 c6         1 ET4       0.012200
     11 C02        190.9960   321.4100   199.8000 c6         1 ET4      -0.066400
     12 C03        190.3450   321.9530   201.0930 c6         1 ET4       0.178300
     13 C04        190.7250   321.0750   202.3060 c6         1 ET4      -0.076200
     14 C05        192.1520   320.5150   202.3110 c2         1 ET4      -0.098400
     15 C06        192.9740   320.5660   201.2040 ce         1 ET4      -0.058200
     16 C07        194.2970   319.9040   201.2380 ce         1 ET4      -0.160000
     17 C08        195.4870   320.3850   200.7720 cf         1 ET4      -0.188000
     18 C09        196.7960   319.7210   200.8170 cf         1 ET4      -0.058200
     19 C19        202.7430   308.8160   202.3570 ce         1 ET4      -0.168000
     20 C20        202.8530   307.5040   202.7110 cf         1 ET4      -0.176000
     21 C21        204.1230   306.7820   202.7730 cf         1 ET4      -0.167000
     22 C22        204.3280   305.4760   203.1160 ce         1 ET4       0.047100
     23 C23        205.6480   304.9250   203.1260 cg         1 ET4      -0.170300
     24 C25        193.1810   322.7680   199.7100 c3         1 ET4      -0.082100
     25 C26        192.9950   320.5310   198.5420 c3         1 ET4      -0.082100
     26 C27        197.9830   320.5940   200.4280 c3         1 ET4      -0.055900
     27 C28        200.9200   316.3310   201.6830 c3         1 ET4      -0.055900
     28 C29        203.2550   304.4700   203.5130 c3         1 ET4      -0.050900
     29 C30        200.1790   308.8640   202.2660 c3         1 ET4      -0.054900
     30 C32        206.7970   304.5140   203.1200 ch         1 ET4      -0.133300
     31 C33        208.1660   304.0770   203.1690 cf         1 ET4       0.025100
     32 C34        209.1940   305.2030   202.8110 c6         1 ET4       0.005200
     33 C35        210.6100   304.5880   202.5810 c6         1 ET4      -0.069400
     34 C36        210.9980   303.5640   203.6700 c6         1 ET4       0.174300
     35 C37        210.0470   302.3520   203.6190 c6         1 ET4      -0.081200
     36 C38        208.5630   302.8050   203.5290 c2         1 ET4      -0.079400
     37 C39        207.6020   301.6790   203.8880 c3         1 ET4      -0.056900
     38 C41        208.7810   305.9720   201.5100 c3         1 ET4      -0.082600
     39 C42        209.2280   306.2350   203.9850 c3         1 ET4      -0.082600
     40 O31        190.6720   323.3270   201.3300 oh         1 ET4      -0.654000
     41 O40        212.3480   303.1320   203.4750 oh         1 ET4      -0.659000
     42 H1         196.0930   317.8180   201.4310 ha         1 ET4       0.171000
     43 H2         199.1460   318.2440   200.9680 ha         1 ET4       0.173000
     44 H3         197.4370   315.8450   201.8250 ha         1 ET4       0.169000
     45 H4         198.5190   313.7730   201.8080 ha         1 ET4       0.168000
     46 H5         201.6460   313.6580   201.7910 ha         1 ET4       0.172000
     47 H6         202.5830   311.4220   202.1400 ha         1 ET4       0.169000
     48 H7         199.4610   311.5420   202.1570 ha         1 ET4       0.172000
     49 H8         190.6730   322.0190   198.9440 hc         1 ET4       0.047700
     50 H9         190.5820   320.4080   199.6160 hc         1 ET4       0.047700
     51 H10        189.2540   321.8800   200.9680 h1         1 ET4       0.027700
     52 H11        190.5320   321.6310   203.2340 hc         1 ET4       0.048700
     53 H12        190.0350   320.2200   202.3330 hc         1 ET4       0.048700
     54 H13        194.2920   318.9320   201.7280 ha         1 ET4       0.167000
     55 H14        195.4840   321.3810   200.3390 ha         1 ET4       0.179000
     56 H15        203.6660   309.3490   202.1210 ha         1 ET4       0.171000
     57 H16        201.9490   306.9580   202.9790 ha         1 ET4       0.174000
     58 H17        205.0090   307.3660   202.5130 ha         1 ET4       0.176000
     59 H18        192.1750   320.4750   204.5140 hc         1 ET4       0.040700
     60 H19        191.9310   318.8860   203.7690 hc         1 ET4       0.040700
     61 H20        193.5370   319.6300   203.7920 hc         1 ET4       0.040700
     62 H21        193.2160   323.2830   200.6760 hc         1 ET4       0.036533
     63 H22        194.2030   322.7520   199.3180 hc         1 ET4       0.036533
     64 H23        192.6020   323.3910   199.0190 hc         1 ET4       0.036533
     65 H24        194.0840   320.4780   198.4360 hc         1 ET4       0.036533
     66 H25        192.6200   319.5010   198.5540 hc         1 ET4       0.036533
     67 H26        192.6070   321.0140   197.6360 hc         1 ET4       0.036533
     68 H27        197.6960   321.6270   200.1970 hc         1 ET4       0.042033
     69 H28        198.7190   320.6430   201.2390 hc         1 ET4       0.042033
     70 H29        198.4900   320.1950   199.5410 hc         1 ET4       0.042033
     71 H30        201.6870   315.8100   202.2650 hc         1 ET4       0.042700
     72 H31        201.3060   316.4670   200.6650 hc         1 ET4       0.042700
     73 H32        200.8280   317.3220   202.1430 hc         1 ET4       0.042700
     74 H33        203.4270   304.0920   204.5280 hc         1 ET4       0.045033
     75 H34        202.2430   304.8840   203.4950 hc         1 ET4       0.045033
     76 H35        203.2570   303.6060   202.8370 hc         1 ET4       0.045033
     77 H36        200.2720   307.8800   201.7910 hc         1 ET4       0.042367
     78 H37        199.8030   308.7120   203.2840 hc         1 ET4       0.042367
     79 H38        199.4050   309.3890   201.6980 hc         1 ET4       0.042367
     80 H40        210.6430   304.0900   201.6020 hc         1 ET4       0.056700
     81 H41        211.3620   305.3880   202.5380 hc         1 ET4       0.056700
     82 H42        210.9060   304.0430   204.6560 h1         1 ET4       0.033700
     83 H43        210.2800   301.7240   202.7470 hc         1 ET4       0.054700
     84 H44        210.2010   301.7280   204.5100 hc         1 ET4       0.054700
     85 H46        207.8300   300.7730   203.3140 hc         1 ET4       0.045367
     86 H47        207.6770   301.4260   204.9520 hc         1 ET4       0.045367
     87 H48        206.5550   301.9290   203.6850 hc         1 ET4       0.045367
     88 H49        208.6270   305.2790   200.6740 hc         1 ET4       0.037867
     89 H50        207.8580   306.5500   201.6370 hc         1 ET4       0.037867
     90 H51        209.5590   306.6830   201.2080 hc         1 ET4       0.037867
     91 H52        209.4460   305.7510   204.9440 hc         1 ET4       0.037867
     92 H53        209.9930   307.0030   203.8210 hc         1 ET4       0.037867
     93 H54        208.2690   306.7550   204.0980 hc         1 ET4       0.037867
     94 H55        190.1900   323.5940   202.1420 ho         1 ET4       0.438000
     95 H56        212.5650   302.5380   204.2270 ho         1 ET4       0.442000
     96 C24        192.4680   319.8370   203.6710 c3         1 ET4      -0.056900
@<TRIPOS>BOND
     1     1     2 1   
     2     1    18 2   
     3     1    42 1   
     4     2     3 2   
     5     2    43 1   
     6     3     4 1   
     7     3    44 1   
     8     4     5 2   
     9     4    27 1   
    10     5     6 1   
    11     5    45 1   
    12     6     9 2   
    13     6    46 1   
    14     7     8 2   
    15     7    19 1   
    16     7    29 1   
    17     8     9 1   
    18     8    47 1   
    19     9    48 1   
    20    10    11 1   
    21    10    15 1   
    22    10    24 1   
    23    10    25 1   
    24    11    12 1   
    25    11    49 1   
    26    11    50 1   
    27    12    13 1   
    28    12    40 1   
    29    12    51 1   
    30    13    14 1   
    31    13    52 1   
    32    13    53 1   
    33    14    15 2   
    34    14    96 1   
    35    15    16 1   
    36    16    17 2   
    37    16    54 1   
    38    17    18 1   
    39    17    55 1   
    40    18    26 1   
    41    19    20 2   
    42    19    56 1   
    43    20    21 1   
    44    20    57 1   
    45    21    22 2   
    46    21    58 1   
    47    22    23 1   
    48    22    28 1   
    49    23    30 3   
    50    24    62 1   
    51    24    63 1   
    52    24    64 1   
    53    25    65 1   
    54    25    66 1   
    55    25    67 1   
    56    26    68 1   
    57    26    69 1   
    58    26    70 1   
    59    27    71 1   
    60    27    72 1   
    61    27    73 1   
    62    28    74 1   
    63    28    75 1   
    64    28    76 1   
    65    29    77 1   
    66    29    78 1   
    67    29    79 1   
    68    30    31 1   
    69    31    32 1   
    70    31    36 2   
    71    32    33 1   
    72    32    38 1   
    73    32    39 1   
    74    33    34 1   
    75    33    80 1   
    76    33    81 1   
    77    34    35 1   
    78    34    41 1   
    79    34    82 1   
    80    35    36 1   
    81    35    83 1   
    82    35    84 1   
    83    36    37 1   
    84    37    85 1   
    85    37    86 1   
    86    37    87 1   
    87    38    88 1   
    88    38    89 1   
    89    38    90 1   
    90    39    91 1   
    91    39    92 1   
    92    39    93 1   
    93    40    94 1   
    94    41    95 1   
    95    59    96 1   
    96    60    96 1   
    97    61    96 1   
@<TRIPOS>SUBSTRUCTURE
     1 ET4         1 TEMP              0 ****  ****    0 ROOT
