@<TRIPOS>MOLECULE
ET7
   48    51     1     0     0
SMALL
abcg2


@<TRIPOS>ATOM
      1 CAU         -0.4770     2.9180    10.7200 c3         1 ET7      -0.113100
      2 CAT          0.5270     2.0970     9.9290 c3         1 ET7       0.104000
      3 NAB          1.9020     2.5510    10.1590 n          1 ET7      -0.318000
      4 CAA          2.4000     3.5290     9.3580 c          1 ET7       0.589600
      5 OBC          1.7950     3.9320     8.3780 o          1 ET7      -0.541000
      6 CAV          3.7400     4.1230     9.6660 ca         1 ET7      -0.113600
      7 CAZ          4.6670     4.2270     8.6330 ca         1 ET7      -0.070000
      8 CBA          5.8590     4.9080     8.8250 ca         1 ET7      -0.101000
      9 CBB          6.1220     5.5200    10.0440 ca         1 ET7      -0.100000
     10 CAY          5.2050     5.4240    11.0800 ca         1 ET7      -0.073000
     11 CAW          4.0240     4.7190    10.8930 ca         1 ET7      -0.094000
     12 SAX          2.8700     4.5570    12.2330 ss         1 ET7       0.040000
     13 CAD          2.9940     2.7940    12.3510 ca         1 ET7      -0.111000
     14 CAE          3.5700     2.2350    13.4850 ca         1 ET7      -0.082000
     15 CAC          2.5650     2.0100    11.2840 ca         1 ET7       0.060600
     16 CAF          2.7440     0.6320    11.3780 ca         1 ET7      -0.097000
     17 CAG          3.2960     0.0610    12.5050 ca         1 ET7      -0.142000
     18 CAH          3.7090     0.8520    13.5820 ca         1 ET7      -0.031000
     19 NAI          4.2520     0.1900    14.6830 ns         1 ET7      -0.146000
     20 CAJ          4.7960     0.7110    15.8130 c          1 ET7       0.608100
     21 OAK          4.8970     1.9010    16.0360 o          1 ET7      -0.566100
     22 CAL          5.2860    -0.3270    16.8090 c3         1 ET7      -0.108100
     23 CAM          6.7390    -0.1090    17.1270 ca         1 ET7      -0.102300
     24 CAN          7.7250    -0.7420    16.3760 ca         1 ET7      -0.067000
     25 CAO          9.0720    -0.5270    16.6310 ca         1 ET7      -0.151000
     26 CAR          9.4190     0.3360    17.6520 ca         1 ET7       0.179000
     27 F1          10.7200     0.5500    17.9070 f          1 ET7      -0.177000
     28 CAQ          8.4700     0.9810    18.4200 ca         1 ET7      -0.151000
     29 CAP          7.1280     0.7530    18.1480 ca         1 ET7      -0.067000
     30 H1          -1.4850     2.5400    10.5450 hc         1 ET7       0.045367
     31 H2          -0.2800     2.8590    11.7910 hc         1 ET7       0.045367
     32 H3          -0.4530     3.9660    10.4240 hc         1 ET7       0.045367
     33 H4           0.3150     2.1440     8.8640 h1         1 ET7       0.057700
     34 H5           0.4630     1.0490    10.2170 h1         1 ET7       0.057700
     35 H6           4.4540     3.7760     7.6730 ha         1 ET7       0.128000
     36 H7           6.5780     4.9710     8.0190 ha         1 ET7       0.119000
     37 H8           7.0450     6.0650    10.1920 ha         1 ET7       0.118000
     38 H9           5.4110     5.8830    12.0390 ha         1 ET7       0.131000
     39 H10          3.9050     2.8860    14.2750 ha         1 ET7       0.165000
     40 H11          2.4470    -0.0070    10.5570 ha         1 ET7       0.124000
     41 H12          3.4180    -1.0140    12.5460 ha         1 ET7       0.113000
     42 H13          4.2540    -0.8170    14.6130 hn         1 ET7       0.150000
     43 H14          4.6800    -0.2150    17.7110 hc         1 ET7       0.068200
     44 H15          5.1250    -1.3440    16.4460 hc         1 ET7       0.068200
     45 H16          7.4420    -1.4180    15.5780 ha         1 ET7       0.118000
     46 H17          9.8350    -1.0240    16.0470 ha         1 ET7       0.134000
     47 H18          8.7690     1.6480    19.2180 ha         1 ET7       0.134000
     48 H19          6.3770     1.2490    18.7500 ha         1 ET7       0.118000
@<TRIPOS>BOND
     1     1     2 1   
     2     1    30 1   
     3     1    31 1   
     4     1    32 1   
     5     2     3 1   
     6     2    33 1   
     7     2    34 1   
     8     3     4 1   
     9     3    15 1   
    10     4     5 2   
    11     4     6 1   
    12     6     7 ar  
    13     6    11 ar  
    14     7     8 ar  
    15     7    35 1   
    16     8     9 ar  
    17     8    36 1   
    18     9    10 ar  
    19     9    37 1   
    20    10    11 ar  
    21    10    38 1   
    22    11    12 1   
    23    12    13 1   
    24    13    14 ar  
    25    13    15 ar  
    26    14    18 ar  
    27    14    39 1   
    28    15    16 ar  
    29    16    17 ar  
    30    16    40 1   
    31    17    18 ar  
    32    17    41 1   
    33    18    19 1   
    34    19    20 1   
    35    19    42 1   
    36    20    21 2   
    37    20    22 1   
    38    22    23 1   
    39    22    43 1   
    40    22    44 1   
    41    23    24 ar  
    42    23    29 ar  
    43    24    25 ar  
    44    24    45 1   
    45    25    26 ar  
    46    25    46 1   
    47    26    27 1   
    48    26    28 ar  
    49    28    29 ar  
    50    28    47 1   
    51    29    48 1   
@<TRIPOS>SUBSTRUCTURE
     1 ET7         1 TEMP              0 ****  ****    0 ROOT
