@<TRIPOS>MOLECULE
ET7
   48    51     1     0     0
SMALL
No Charge or Current Charge


@<TRIPOS>ATOM
      1 CAU         -0.6500     2.8340    10.0280 c3         1 ET7      -0.113100
      2 CAT          0.5720     1.9430     9.7480 c3         1 ET7       0.104000
      3 NAB          1.8320     2.5460    10.2620 n          1 ET7      -0.318000
      4 CAA          2.6000     3.3460     9.3630 c          1 ET7       0.589600
      5 OBC          2.2380     3.4830     8.1990 o          1 ET7      -0.541000
      6 CAV          3.8390     4.1030     9.8230 ca         1 ET7      -0.113600
      7 CAZ          4.8880     4.2730     8.8900 ca         1 ET7      -0.070000
      8 CBA          6.0410     5.0060     9.2170 ca         1 ET7      -0.101000
      9 CBB          6.1590     5.6010    10.4810 ca         1 ET7      -0.100000
     10 CAY          5.1190     5.4660    11.4120 ca         1 ET7      -0.073000
     11 CAW          3.9640     4.7300    11.0890 ca         1 ET7      -0.094000
     12 SAX          2.6850     4.6070    12.3150 ss         1 ET7       0.040000
     13 CAD          2.8190     2.8520    12.5120 ca         1 ET7      -0.111000
     14 CAE          3.4180     2.3280    13.6720 ca         1 ET7      -0.082000
     15 CAC          2.3350     2.0090    11.5000 ca         1 ET7       0.060600
     16 CAF          2.5870     0.6260    11.6110 ca         1 ET7      -0.097000
     17 CAG          3.1860     0.0940    12.7660 ca         1 ET7      -0.142000
     18 CAH          3.5910     0.9350    13.8160 ca         1 ET7      -0.031000
     19 NAI          4.1960     0.3300    14.9520 ns         1 ET7      -0.146000
     20 CAJ          4.6050     0.8440    16.1770 c          1 ET7       0.608100
     21 OAK          4.4740     2.0160    16.5120 o          1 ET7      -0.566100
     22 CAL          5.2600    -0.1880    17.1060 c3         1 ET7      -0.108100
     23 CAM          6.7800    -0.0500    17.0850 ca         1 ET7      -0.102300
     24 CAN          7.5480    -0.7910    16.1640 ca         1 ET7      -0.067000
     25 CAO          8.9480    -0.6580    16.1420 ca         1 ET7      -0.151000
     26 CAR          9.5810     0.2150    17.0390 ca         1 ET7       0.179000
     27 F1          10.9260     0.3430    17.0160 f          1 ET7      -0.177000
     28 CAQ          8.8250     0.9570    17.9580 ca         1 ET7      -0.151000
     29 CAP          7.4250     0.8250    17.9820 ca         1 ET7      -0.067000
     30 H1          -1.5640     2.3550     9.6580 hc         1 ET7       0.045367
     31 H2          -0.7620     3.0060    11.1050 hc         1 ET7       0.045367
     32 H3          -0.5430     3.8050     9.5310 hc         1 ET7       0.045367
     33 H4           0.6450     1.7410     8.6720 h1         1 ET7       0.057700
     34 H5           0.3970     0.9760    10.2350 h1         1 ET7       0.057700
     35 H6           4.8150     3.8260     7.9000 ha         1 ET7       0.128000
     36 H7           6.8410     5.1160     8.4880 ha         1 ET7       0.119000
     37 H8           7.0500     6.1710    10.7360 ha         1 ET7       0.118000
     38 H9           5.2090     5.9350    12.3890 ha         1 ET7       0.131000
     39 H10          3.7640     3.0210    14.4320 ha         1 ET7       0.165000
     40 H11          2.3170    -0.0460    10.8000 ha         1 ET7       0.124000
     41 H12          3.3450    -0.9800    12.8360 ha         1 ET7       0.113000
     42 H13          4.3650    -0.6620    14.8430 hn         1 ET7       0.150000
     43 H14          4.8900    -0.0240    18.1250 hc         1 ET7       0.068200
     44 H15          4.9880    -1.2010    16.7840 hc         1 ET7       0.068200
     45 H16          7.0630    -1.4690    15.4640 ha         1 ET7       0.118000
     46 H17          9.5400    -1.2280    15.4310 ha         1 ET7       0.134000
     47 H18          9.3230     1.6320    18.6490 ha         1 ET7       0.134000
     48 H19          6.8430     1.4060    18.6950 ha         1 ET7       0.118000
@<TRIPOS>BOND
     1     1     2 1   
     2     1    30 1   
     3     1    31 1   
     4     1    32 1   
     5     2     3 1   
     6     2    33 1   
     7     2    34 1   
     8     3     4 1   
     9     3    15 1   
    10     4     5 2   
    11     4     6 1   
    12     6     7 ar  
    13     6    11 ar  
    14     7     8 ar  
    15     7    35 1   
    16     8     9 ar  
    17     8    36 1   
    18     9    10 ar  
    19     9    37 1   
    20    10    11 ar  
    21    10    38 1   
    22    11    12 1   
    23    12    13 1   
    24    13    14 ar  
    25    13    15 ar  
    26    14    18 ar  
    27    14    39 1   
    28    15    16 ar  
    29    16    17 ar  
    30    16    40 1   
    31    17    18 ar  
    32    17    41 1   
    33    18    19 1   
    34    19    20 1   
    35    19    42 1   
    36    20    21 2   
    37    20    22 1   
    38    22    23 1   
    39    22    43 1   
    40    22    44 1   
    41    23    24 ar  
    42    23    29 ar  
    43    24    25 ar  
    44    24    45 1   
    45    25    26 ar  
    46    25    46 1   
    47    26    27 1   
    48    26    28 ar  
    49    28    29 ar  
    50    28    47 1   
    51    29    48 1   
@<TRIPOS>SUBSTRUCTURE
     1 ET7         1 TEMP              0 ****  ****    0 ROOT
