@<TRIPOS>MOLECULE
ET8
   34    37     1     0     0
SMALL
No Charge or Current Charge


@<TRIPOS>ATOM
      1 C18          5.1880    -0.7340     0.6900 ca         1 ET8       0.335400
      2 N19          5.1270    -1.9970     0.2120 nb         1 ET8      -0.665000
      3 C20          3.9700    -2.3930    -0.3650 ca         1 ET8       0.335400
      4 C17          4.1140     0.1670     0.6100 ca         1 ET8      -0.161000
      5 C16          2.8950    -0.2300     0.0100 cp         1 ET8       0.016000
      6 C21          2.8490    -1.5560    -0.4830 ca         1 ET8      -0.161000
      7 C5           1.7230     0.6960    -0.0960 cp         1 ET8      -0.087000
      8 C4           0.3910     0.1960    -0.0310 ca         1 ET8      -0.014000
      9 C3          -0.6750     1.1010    -0.1480 ca         1 ET8      -0.221900
     10 C2          -0.4730     2.4380    -0.2700 ca         1 ET8      -0.034200
     11 C1           0.8120     2.9870    -0.3330 ca         1 ET8      -0.132000
     12 C6           1.9100     2.1040    -0.2550 ca         1 ET8      -0.057000
     13 N7          -1.7010     3.0730    -0.2700 na         1 ET8      -0.054400
     14 N8          -2.7380     2.1320    -0.1330 nc         1 ET8      -0.510100
     15 C9          -2.1150     0.9430    -0.0850 cd         1 ET8       0.409500
     16 C10         -2.8430    -0.3380     0.0300 ca         1 ET8      -0.097900
     17 C11         -2.3970    -1.4890    -0.6560 ca         1 ET8      -0.088000
     18 C12         -3.1200    -2.6930    -0.5800 ca         1 ET8      -0.115000
     19 C13         -4.3080    -2.7550     0.1660 ca         1 ET8      -0.102000
     20 C14         -4.7800    -1.6080     0.8230 ca         1 ET8      -0.115000
     21 C15         -4.0590    -0.4040     0.7460 ca         1 ET8      -0.088000
     22 H1           6.1270    -0.4360     1.1550 h4         1 ET8       0.018100
     23 H2           3.9430    -3.4130    -0.7470 h4         1 ET8       0.018100
     24 H3           4.2300     1.1620     1.0280 ha         1 ET8       0.123000
     25 H4           1.9570    -1.9370    -0.9710 ha         1 ET8       0.123000
     26 H5           0.2070    -0.8620     0.1330 ha         1 ET8       0.125000
     27 H6           0.9620     4.0590    -0.4330 ha         1 ET8       0.123000
     28 H7           2.9140     2.5150    -0.3180 ha         1 ET8       0.118000
     29 H8          -1.8720     4.0760    -0.3370 hn         1 ET8       0.379000
     30 H9          -1.5000    -1.4510    -1.2690 ha         1 ET8       0.119000
     31 H10         -2.7630    -3.5750    -1.1080 ha         1 ET8       0.113500
     32 H11         -4.8680    -3.6860     0.2230 ha         1 ET8       0.113000
     33 H12         -5.7080    -1.6500     1.3900 ha         1 ET8       0.113500
     34 H13         -4.4400     0.4780     1.2560 ha         1 ET8       0.119000
@<TRIPOS>BOND
     1     1     2 ar  
     2     1     4 ar  
     3     1    22 1   
     4     2     3 ar  
     5     3     6 ar  
     6     3    23 1   
     7     4     5 ar  
     8     4    24 1   
     9     5     6 ar  
    10     5     7 1   
    11     6    25 1   
    12     7     8 ar  
    13     7    12 ar  
    14     8     9 ar  
    15     8    26 1   
    16     9    10 ar  
    17     9    15 1   
    18    10    11 ar  
    19    10    13 1   
    20    11    12 ar  
    21    11    27 1   
    22    12    28 1   
    23    13    14 1   
    24    13    29 1   
    25    14    15 2   
    26    15    16 1   
    27    16    17 ar  
    28    16    21 ar  
    29    17    18 ar  
    30    17    30 1   
    31    18    19 ar  
    32    18    31 1   
    33    19    20 ar  
    34    19    32 1   
    35    20    21 ar  
    36    20    33 1   
    37    21    34 1   
@<TRIPOS>SUBSTRUCTURE
     1 ET8         1 TEMP              0 ****  ****    0 ROOT
