@<TRIPOS>MOLECULE
ET8
   34    37     1     0     0
SMALL
bcc


@<TRIPOS>ATOM
      1 C18          5.1430    -0.6830     0.7260 ca         1 ET8       0.400700
      2 N19          5.1530    -1.8920     0.1760 nb         1 ET8      -0.665000
      3 C20          4.0560    -2.2700    -0.4700 ca         1 ET8       0.400700
      4 C17          4.0650     0.1850     0.6580 ca         1 ET8      -0.244300
      5 C16          2.9110    -0.2100    -0.0180 cp         1 ET8       0.016000
      6 C21          2.9260    -1.4790    -0.5950 ca         1 ET8      -0.244300
      7 C5           1.7320     0.6710    -0.1100 cp         1 ET8      -0.087000
      8 C4           0.4580     0.1360    -0.0740 ca         1 ET8      -0.032000
      9 C3          -0.6430     0.9960    -0.1500 ca         1 ET8      -0.221900
     10 C2          -0.4340     2.3820    -0.2420 ca         1 ET8      -0.034200
     11 C1           0.8470     2.9420    -0.2900 ca         1 ET8      -0.150000
     12 C6           1.9070     2.0730    -0.2240 ca         1 ET8      -0.075000
     13 N7          -1.6630     2.9430    -0.2500 na         1 ET8      -0.004100
     14 N8          -2.6350     2.0370    -0.1720 nc         1 ET8      -0.510100
     15 C9          -2.0660     0.8540    -0.1120 cd         1 ET8       0.409500
     16 C10         -2.8680    -0.3660    -0.0010 ca         1 ET8      -0.097900
     17 C11         -2.4410    -1.5590    -0.5850 ca         1 ET8      -0.106000
     18 C12         -3.2060    -2.7120    -0.4770 ca         1 ET8      -0.133000
     19 C13         -4.4100    -2.6890     0.2130 ca         1 ET8      -0.120000
     20 C14         -4.8480    -1.5030     0.7900 ca         1 ET8      -0.133000
     21 C15         -4.0830    -0.3510     0.6870 ca         1 ET8      -0.106000
     22 H1           6.0400    -0.3840     1.2560 h4         1 ET8       0.018100
     23 H2           4.0740    -3.2550    -0.9220 h4         1 ET8       0.018100
     24 H3           4.1270     1.1470     1.1490 ha         1 ET8       0.141000
     25 H4           2.0790    -1.8490    -1.1570 ha         1 ET8       0.141000
     26 H5           0.3180    -0.9300     0.0490 ha         1 ET8       0.143000
     27 H6           1.0000     4.0090    -0.3760 ha         1 ET8       0.141000
     28 H7           2.9120     2.4740    -0.2740 ha         1 ET8       0.136000
     29 H8          -1.8970     3.9200    -0.3150 hn         1 ET8       0.328700
     30 H9          -1.5190    -1.5870    -1.1520 ha         1 ET8       0.137000
     31 H10         -2.8610    -3.6280    -0.9390 ha         1 ET8       0.131500
     32 H11         -5.0060    -3.5880     0.3000 ha         1 ET8       0.131000
     33 H12         -5.7840    -1.4770     1.3320 ha         1 ET8       0.131500
     34 H13         -4.4230     0.5640     1.1530 ha         1 ET8       0.137000
@<TRIPOS>BOND
     1     1     2 ar  
     2     1     4 ar  
     3     1    22 1   
     4     2     3 ar  
     5     3     6 ar  
     6     3    23 1   
     7     4     5 ar  
     8     4    24 1   
     9     5     6 ar  
    10     5     7 1   
    11     6    25 1   
    12     7     8 ar  
    13     7    12 ar  
    14     8     9 ar  
    15     8    26 1   
    16     9    10 ar  
    17     9    15 1   
    18    10    11 ar  
    19    10    13 1   
    20    11    12 ar  
    21    11    27 1   
    22    12    28 1   
    23    13    14 1   
    24    13    29 1   
    25    14    15 2   
    26    15    16 1   
    27    16    17 ar  
    28    16    21 ar  
    29    17    18 ar  
    30    17    30 1   
    31    18    19 ar  
    32    18    31 1   
    33    19    20 ar  
    34    19    32 1   
    35    20    21 ar  
    36    20    33 1   
    37    21    34 1   
@<TRIPOS>SUBSTRUCTURE
     1 ET8         1 TEMP              0 ****  ****    0 ROOT
