@<TRIPOS>MOLECULE
ETA
   11    10     1     0     0
SMALL
No Charge or Current Charge


@<TRIPOS>ATOM
      1 CA         -12.5490     2.0980    24.5140 c3         1 ETA       0.150800
      2 N          -12.9580     1.2500    23.3650 n8         1 ETA      -0.997200
      3 CB         -13.0660     3.5630    24.4090 c3         1 ETA       0.160600
      4 O          -14.5030     3.5950    24.3170 oh         1 ETA      -0.668000
      5 HA1        -12.9460     1.6500    25.4350 h1         1 ETA       0.032700
      6 HA2        -11.4520     2.0980    24.5830 h1         1 ETA       0.032700
      7 HN1        -12.7980     0.2630    23.6030 hn         1 ETA       0.398000
      8 HN2        -13.9800     1.3180    23.2810 hn         1 ETA       0.398000
      9 HB1        -12.7300     4.1200    25.2930 h1         1 ETA       0.025200
     10 HB2        -12.6180     4.0390    23.5260 h1         1 ETA       0.025200
     11 HO         -14.7610     4.5400    24.2240 ho         1 ETA       0.444000
@<TRIPOS>BOND
     1     1     2 1   
     2     1     3 1   
     3     1     5 1   
     4     1     6 1   
     5     2     7 1   
     6     2     8 1   
     7     3     4 1   
     8     3     9 1   
     9     3    10 1   
    10     4    11 1   
@<TRIPOS>SUBSTRUCTURE
     1 ETA         1 TEMP              0 ****  ****    0 ROOT
