@<TRIPOS>MOLECULE
ETA
   11    10     1     0     0
SMALL
abcg2


@<TRIPOS>ATOM
      1 CA         -12.6230     2.0990    24.5410 c3         1 ETA       0.150800
      2 N          -12.9990     1.3210    23.3700 n8         1 ETA      -0.997200
      3 CB         -13.0570     3.5420    24.4090 c3         1 ETA       0.160600
      4 O          -14.4680     3.5960    24.3840 oh         1 ETA      -0.668000
      5 HA1        -13.0100     1.6950    25.4880 h1         1 ETA       0.032700
      6 HA2        -11.5340     2.0920    24.6270 h1         1 ETA       0.032700
      7 HN1        -12.6600     0.3730    23.4740 hn         1 ETA       0.398000
      8 HN2        -14.0070     1.2460    23.3270 hn         1 ETA       0.398000
      9 HB1        -12.6460     4.1120    25.2520 h1         1 ETA       0.025200
     10 HB2        -12.6220     3.9610    23.4920 h1         1 ETA       0.025200
     11 HO         -14.7350     4.4980    24.1860 ho         1 ETA       0.444000
@<TRIPOS>BOND
     1     1     2 1   
     2     1     3 1   
     3     1     5 1   
     4     1     6 1   
     5     2     7 1   
     6     2     8 1   
     7     3     4 1   
     8     3     9 1   
     9     3    10 1   
    10     4    11 1   
@<TRIPOS>SUBSTRUCTURE
     1 ETA         1 TEMP              0 ****  ****    0 ROOT
