@<TRIPOS>MOLECULE
ETC
   48    51     1     0     0
SMALL
No Charge or Current Charge


@<TRIPOS>ATOM
      1 C22          1.1270     3.7880    -1.4980 c3         1 ETC      -0.089100
      2 C21          0.5970     2.3530    -1.2920 c3         1 ETC      -0.074400
      3 C11          0.3260     1.9450     0.1920 c6         1 ETC      -0.014500
      4 C12          1.6250     1.8670     1.0400 c6         1 ETC      -0.033100
      5 C9          -0.4020     0.5860     0.2180 ce         1 ETC      -0.046400
      6 C8           0.3640    -0.5480     0.2180 cf         1 ETC      -0.046400
      7 C14          1.8520    -0.5430     0.2700 ca         1 ETC      -0.080800
      8 C15          2.6580    -1.6610    -0.0560 ca         1 ETC      -0.058000
      9 C16          4.0590    -1.5750     0.0170 ca         1 ETC      -0.212000
     10 C17          4.6710    -0.3790     0.4160 ca         1 ETC       0.143100
     11 O25          6.0290    -0.2980     0.4900 oh         1 ETC      -0.533100
     12 C18          3.8870     0.7340     0.7420 ca         1 ETC      -0.146000
     13 C13          2.4840     0.6570     0.6660 ca         1 ETC      -0.029300
     14 C10         -1.9020     0.5570     0.1930 ca         1 ETC      -0.080800
     15 C5          -2.5390    -0.6470     0.5610 ca         1 ETC      -0.029300
     16 C6          -1.6870    -1.8420     0.9880 c6         1 ETC      -0.033100
     17 C7          -0.3440    -1.9250     0.2080 c6         1 ETC      -0.014500
     18 C20         -0.5310    -2.3770    -1.2760 c3         1 ETC      -0.074400
     19 C19         -1.0120    -3.8310    -1.4690 c3         1 ETC      -0.089100
     20 C4          -3.9430    -0.7380     0.5580 ca         1 ETC      -0.146000
     21 C3          -4.7190     0.3650     0.1770 ca         1 ETC       0.143100
     22 O23         -6.0780     0.2690     0.1730 oh         1 ETC      -0.533100
     23 C2          -4.0970     1.5630    -0.2000 ca         1 ETC      -0.212000
     24 C1          -2.6950     1.6620    -0.1930 ca         1 ETC      -0.058000
     25 H221         2.1280     3.9080    -1.0670 hc         1 ETC       0.031033
     26 H222         1.1930     4.0170    -2.5680 hc         1 ETC       0.031033
     27 H223         0.4560     4.5200    -1.0330 hc         1 ETC       0.031033
     28 H211        -0.3290     2.2570    -1.8720 hc         1 ETC       0.047200
     29 H212         1.3040     1.6510    -1.7510 hc         1 ETC       0.047200
     30 H11         -0.3120     2.7200     0.6360 hc         1 ETC       0.055700
     31 H121         2.2010     2.7970     0.9570 hc         1 ETC       0.055700
     32 H122         1.3510     1.7820     2.1010 hc         1 ETC       0.055700
     33 H15          2.2180    -2.6000    -0.3770 ha         1 ETC       0.114000
     34 H16          4.6610    -2.4430    -0.2400 ha         1 ETC       0.112000
     35 H25          6.4040    -1.1660     0.2280 ho         1 ETC       0.464000
     36 H18          4.3680     1.6570     1.0550 ha         1 ETC       0.127000
     37 HC61        -1.4660    -1.7410     2.0600 hc         1 ETC       0.055700
     38 HC62        -2.2510    -2.7780     0.8910 hc         1 ETC       0.055700
     39 HC7          0.2810    -2.6750     0.7100 hc         1 ETC       0.055700
     40 H201        -1.2360    -1.7070    -1.7840 hc         1 ETC       0.047200
     41 H202         0.4160    -2.2680    -1.8180 hc         1 ETC       0.047200
     42 H191        -2.0260    -3.9690    -1.0770 hc         1 ETC       0.031033
     43 H192        -1.0270    -4.0870    -2.5350 hc         1 ETC       0.031033
     44 H193        -0.3410    -4.5320    -0.9590 hc         1 ETC       0.031033
     45 HC4         -4.4320    -1.6640     0.8500 ha         1 ETC       0.127000
     46 H23         -6.4450     1.1300    -0.1190 ho         1 ETC       0.464000
     47 HC2         -4.6920     2.4220    -0.5010 ha         1 ETC       0.112000
     48 HC1         -2.2410     2.6010    -0.4980 ha         1 ETC       0.114000
@<TRIPOS>BOND
     1     1     2 1   
     2     1    25 1   
     3     1    26 1   
     4     1    27 1   
     5     2     3 1   
     6     2    28 1   
     7     2    29 1   
     8     3     4 1   
     9     3     5 1   
    10     3    30 1   
    11     4    13 1   
    12     4    31 1   
    13     4    32 1   
    14     5     6 2   
    15     5    14 1   
    16     6     7 1   
    17     6    17 1   
    18     7     8 ar  
    19     7    13 ar  
    20     8     9 ar  
    21     8    33 1   
    22     9    10 ar  
    23     9    34 1   
    24    10    11 1   
    25    10    12 ar  
    26    11    35 1   
    27    12    13 ar  
    28    12    36 1   
    29    14    15 ar  
    30    14    24 ar  
    31    15    16 1   
    32    15    20 ar  
    33    16    17 1   
    34    16    37 1   
    35    16    38 1   
    36    17    18 1   
    37    17    39 1   
    38    18    19 1   
    39    18    40 1   
    40    18    41 1   
    41    19    42 1   
    42    19    43 1   
    43    19    44 1   
    44    20    21 ar  
    45    20    45 1   
    46    21    22 1   
    47    21    23 ar  
    48    22    46 1   
    49    23    24 ar  
    50    23    47 1   
    51    24    48 1   
@<TRIPOS>SUBSTRUCTURE
     1 ETC         1 TEMP              0 ****  ****    0 ROOT
