@<TRIPOS>MOLECULE
ETC
   48    51     1     0     0
SMALL
bcc


@<TRIPOS>ATOM
      1 C22          1.1010     3.7290    -1.4390 c3         1 ETC      -0.089100
      2 C21          0.6230     2.2930    -1.2680 c3         1 ETC      -0.074400
      3 C11          0.3390     1.9040     0.1910 c6         1 ETC      -0.014500
      4 C12          1.6040     1.8350     1.0400 c6         1 ETC      -0.033100
      5 C9          -0.3700     0.5720     0.2550 ce         1 ETC      -0.046400
      6 C8           0.3470    -0.5740     0.2840 cf         1 ETC      -0.046400
      7 C14          1.8120    -0.5310     0.3000 ca         1 ETC      -0.080800
      8 C15          2.6090    -1.6310    -0.0150 ca         1 ETC      -0.076000
      9 C16          3.9940    -1.5590     0.0010 ca         1 ETC      -0.230000
     10 C17          4.6190    -0.3660     0.3460 ca         1 ETC       0.143100
     11 O25          5.9590    -0.2250     0.3830 oh         1 ETC      -0.494100
     12 C18          3.8390     0.7430     0.6740 ca         1 ETC      -0.164000
     13 C13          2.4580     0.6670     0.6510 ca         1 ETC      -0.029300
     14 C10         -1.8340     0.5290     0.1970 ca         1 ETC      -0.080800
     15 C5          -2.4980    -0.6620     0.5380 ca         1 ETC      -0.029300
     16 C6          -1.6650    -1.8220     0.9920 c6         1 ETC      -0.033100
     17 C7          -0.3590    -1.9070     0.2100 c6         1 ETC      -0.014500
     18 C20         -0.5660    -2.3250    -1.2540 c3         1 ETC      -0.074400
     19 C19         -1.0550    -3.7570    -1.4220 c3         1 ETC      -0.089100
     20 C4          -3.8780    -0.7380     0.4910 ca         1 ETC      -0.164000
     21 C3          -4.6390     0.3650     0.1040 ca         1 ETC       0.143100
     22 O23         -5.9800     0.2250     0.0740 oh         1 ETC      -0.494100
     23 C2          -3.9960     1.5520    -0.2300 ca         1 ETC      -0.230000
     24 C1          -2.6120     1.6240    -0.1770 ca         1 ETC      -0.076000
     25 H221         2.0630     3.9070    -0.9550 hc         1 ETC       0.031033
     26 H222         1.2220     3.9740    -2.4940 hc         1 ETC       0.031033
     27 H223         0.3840     4.4350    -1.0160 hc         1 ETC       0.031033
     28 H211        -0.2860     2.1520    -1.8590 hc         1 ETC       0.047200
     29 H212         1.3600     1.6040    -1.6900 hc         1 ETC       0.047200
     30 H11         -0.3020     2.6740     0.6300 hc         1 ETC       0.055700
     31 H121         2.1730     2.7640     0.9810 hc         1 ETC       0.055700
     32 H122         1.3110     1.7230     2.0910 hc         1 ETC       0.055700
     33 H15          2.1560    -2.5750    -0.2910 ha         1 ETC       0.132000
     34 H16          4.5810    -2.4330    -0.2580 ha         1 ETC       0.130000
     35 H25          6.3890    -1.0450     0.1170 ho         1 ETC       0.425000
     36 H18          4.3240     1.6730     0.9500 ha         1 ETC       0.145000
     37 HC61        -1.4240    -1.6860     2.0540 hc         1 ETC       0.055700
     38 HC62        -2.2310    -2.7520     0.9260 hc         1 ETC       0.055700
     39 HC7          0.2590    -2.6680     0.6970 hc         1 ETC       0.055700
     40 H201        -1.2690    -1.6350    -1.7300 hc         1 ETC       0.047200
     41 H202         0.3760    -2.2080    -1.7950 hc         1 ETC       0.047200
     42 H191        -2.0480    -3.9100    -0.9970 hc         1 ETC       0.031033
     43 H192        -1.1130    -4.0240    -2.4780 hc         1 ETC       0.031033
     44 H193        -0.3780    -4.4650    -0.9400 hc         1 ETC       0.031033
     45 HC4         -4.3780    -1.6630     0.7590 ha         1 ETC       0.145000
     46 H23         -6.3950     1.0450    -0.2140 ho         1 ETC       0.425000
     47 HC2         -4.5690     2.4210    -0.5330 ha         1 ETC       0.130000
     48 HC1         -2.1460     2.5630    -0.4470 ha         1 ETC       0.132000
@<TRIPOS>BOND
     1     1     2 1   
     2     1    25 1   
     3     1    26 1   
     4     1    27 1   
     5     2     3 1   
     6     2    28 1   
     7     2    29 1   
     8     3     4 1   
     9     3     5 1   
    10     3    30 1   
    11     4    13 1   
    12     4    31 1   
    13     4    32 1   
    14     5     6 2   
    15     5    14 1   
    16     6     7 1   
    17     6    17 1   
    18     7     8 ar  
    19     7    13 ar  
    20     8     9 ar  
    21     8    33 1   
    22     9    10 ar  
    23     9    34 1   
    24    10    11 1   
    25    10    12 ar  
    26    11    35 1   
    27    12    13 ar  
    28    12    36 1   
    29    14    15 ar  
    30    14    24 ar  
    31    15    16 1   
    32    15    20 ar  
    33    16    17 1   
    34    16    37 1   
    35    16    38 1   
    36    17    18 1   
    37    17    39 1   
    38    18    19 1   
    39    18    40 1   
    40    18    41 1   
    41    19    42 1   
    42    19    43 1   
    43    19    44 1   
    44    20    21 ar  
    45    20    45 1   
    46    21    22 1   
    47    21    23 ar  
    48    22    46 1   
    49    23    24 ar  
    50    23    47 1   
    51    24    48 1   
@<TRIPOS>SUBSTRUCTURE
     1 ETC         1 TEMP              0 ****  ****    0 ROOT
