@<TRIPOS>MOLECULE
ETD
    4     3     1     0     0
SMALL
No Charge or Current Charge


@<TRIPOS>ATOM
      1 C10          0.0140     0.0300    -0.5660 c1         1 ETD      -0.250000
      2 C11         -0.0010     0.0220     0.6460 c1         1 ETD      -0.250000
      3 H10          0.0140     0.0370    -1.6400 ha         1 ETD       0.250000
      4 H11         -0.0020     0.0150     1.7200 ha         1 ETD       0.250000
@<TRIPOS>BOND
     1     1     2 3   
     2     1     3 1   
     3     2     4 1   
@<TRIPOS>SUBSTRUCTURE
     1 ETD         1 TEMP              0 ****  ****    0 ROOT
