@<TRIPOS>MOLECULE
ETE
   34    33     1     0     0
SMALL
No Charge or Current Charge


@<TRIPOS>ATOM
      1 OH2          0.1100     0.8780     5.9530 oh         1 ETE      -0.709000
      2 C12          1.2410     0.7340     5.0700 c3         1 ETE       0.163600
      3 C22          1.1310    -0.5480     4.2010 c3         1 ETE       0.160600
      4 OH3          0.0440    -0.3980     3.2650 os         1 ETE      -0.435000
      5 C13         -1.3410    -1.2390     1.4460 c3         1 ETE       0.162600
      6 C23         -0.1630    -1.5360     2.4040 c3         1 ETE       0.162600
      7 OH4         -0.9210    -0.2670     0.4680 os         1 ETE      -0.437000
      8 C14         -1.3540     1.1350    -1.4760 c3         1 ETE       0.161600
      9 C24         -1.9390     0.1020    -0.4840 c3         1 ETE       0.161600
     10 OH5         -0.4250     0.4700    -2.3550 os         1 ETE      -0.436000
     11 C15          1.1600     0.4940    -4.2040 c3         1 ETE       0.158600
     12 C25          0.2010     1.3330    -3.3260 c3         1 ETE       0.162600
     13 OH6          0.3840    -0.3470    -5.0830 os         1 ETE      -0.443000
     14 C26          1.1670    -1.1840    -5.9500 c3         1 ETE       0.145900
     15 HO2          0.2220     1.7380     6.4220 ho         1 ETE       0.499000
     16 H121         2.1670     0.6770     5.6560 h1         1 ETE       0.024700
     17 H122         1.3250     1.6070     4.4080 h1         1 ETE       0.024700
     18 H221         0.9730    -1.4190     4.8500 h1         1 ETE       0.026200
     19 H222         2.0770    -0.6930     3.6630 h1         1 ETE       0.026200
     20 H131        -2.2010    -0.8720     2.0230 h1         1 ETE       0.028200
     21 H132        -1.6370    -2.1720     0.9490 h1         1 ETE       0.028200
     22 H231        -0.4070    -2.4240     3.0010 h1         1 ETE       0.027700
     23 H232         0.7400    -1.7560     1.8180 h1         1 ETE       0.027700
     24 H141        -0.8600     1.9420    -0.9180 h1         1 ETE       0.028700
     25 H142        -2.1760     1.5750    -2.0560 h1         1 ETE       0.028700
     26 H241        -2.7950     0.5550     0.0340 h1         1 ETE       0.028200
     27 H242        -2.2990    -0.7750    -1.0370 h1         1 ETE       0.028200
     28 H151         1.8160    -0.1070    -3.5600 h1         1 ETE       0.028700
     29 H152         1.7900     1.1760    -4.7900 h1         1 ETE       0.028700
     30 H251         0.7800     2.1160    -2.8190 h1         1 ETE       0.027200
     31 H252        -0.5490     1.8200    -3.9620 h1         1 ETE       0.027200
     32 H261         0.5120    -1.7920    -6.5870 h1         1 ETE       0.026700
     33 H262         1.8100    -0.5770    -6.6020 h1         1 ETE       0.026700
     34 H263         1.8030    -1.8620    -5.3670 h1         1 ETE       0.026700
@<TRIPOS>BOND
     1     1     2 1   
     2     1    15 1   
     3     2     3 1   
     4     2    16 1   
     5     2    17 1   
     6     3     4 1   
     7     3    18 1   
     8     3    19 1   
     9     4     6 1   
    10     5     6 1   
    11     5     7 1   
    12     5    20 1   
    13     5    21 1   
    14     6    22 1   
    15     6    23 1   
    16     7     9 1   
    17     8     9 1   
    18     8    10 1   
    19     8    24 1   
    20     8    25 1   
    21     9    26 1   
    22     9    27 1   
    23    10    12 1   
    24    11    12 1   
    25    11    13 1   
    26    11    28 1   
    27    11    29 1   
    28    12    30 1   
    29    12    31 1   
    30    13    14 1   
    31    14    32 1   
    32    14    33 1   
    33    14    34 1   
@<TRIPOS>SUBSTRUCTURE
     1 ETE         1 TEMP              0 ****  ****    0 ROOT
