@<TRIPOS>MOLECULE
ETE
   34    33     1     0     0
SMALL
abcg2


@<TRIPOS>ATOM
      1 OH2          0.6000     1.1340     5.3530 oh         1 ETE      -0.709000
      2 C12          1.5850     0.6610     4.4630 c3         1 ETE       0.163600
      3 C22          1.1240    -0.6320     3.8410 c3         1 ETE       0.160600
      4 OH3          0.0060    -0.3970     3.0230 os         1 ETE      -0.435000
      5 C13         -1.5870    -1.2060     1.4500 c3         1 ETE       0.162600
      6 C23         -0.4420    -1.5540     2.3650 c3         1 ETE       0.162600
      7 OH4         -1.1360    -0.3370     0.4430 os         1 ETE      -0.437000
      8 C14         -1.5970     1.0110    -1.4620 c3         1 ETE       0.161600
      9 C24         -2.1430     0.0150    -0.4710 c3         1 ETE       0.161600
     10 OH5         -0.5890     0.4080    -2.2340 os         1 ETE      -0.436000
     11 C15          1.1520     0.6100    -3.8490 c3         1 ETE       0.158600
     12 C25          0.0460     1.3110    -3.1030 c3         1 ETE       0.162600
     13 OH6          0.6150    -0.3450    -4.7270 os         1 ETE      -0.443000
     14 C26          1.6110    -1.0400    -5.4320 c3         1 ETE       0.145900
     15 HO2          0.9000     1.9750     5.7100 ho         1 ETE       0.499000
     16 H121         2.5350     0.4590     4.9740 h1         1 ETE       0.024700
     17 H122         1.8000     1.3870     3.6680 h1         1 ETE       0.024700
     18 H221         0.8910    -1.3660     4.6270 h1         1 ETE       0.026200
     19 H222         1.9580    -1.0480     3.2580 h1         1 ETE       0.026200
     20 H131        -2.4060    -0.7500     2.0260 h1         1 ETE       0.028200
     21 H132        -1.9800    -2.1410     1.0240 h1         1 ETE       0.028200
     22 H231        -0.7920    -2.3100     3.0820 h1         1 ETE       0.027700
     23 H232         0.3700    -2.0180     1.7870 h1         1 ETE       0.027700
     24 H141        -1.2100     1.8900    -0.9270 h1         1 ETE       0.028700
     25 H142        -2.4260     1.3610    -2.0920 h1         1 ETE       0.028700
     26 H241        -2.9980     0.4790     0.0400 h1         1 ETE       0.028200
     27 H242        -2.5270    -0.8710    -0.9970 h1         1 ETE       0.028200
     28 H151         1.8440     0.1430    -3.1330 h1         1 ETE       0.028700
     29 H152         1.7290     1.3680    -4.3970 h1         1 ETE       0.028700
     30 H251         0.4910     2.1460    -2.5460 h1         1 ETE       0.027200
     31 H252        -0.6690     1.7500    -3.8150 h1         1 ETE       0.027200
     32 H261         1.1230    -1.7500    -6.0980 h1         1 ETE       0.026700
     33 H262         2.2320    -0.3680    -6.0370 h1         1 ETE       0.026700
     34 H263         2.2770    -1.5950    -4.7610 h1         1 ETE       0.026700
@<TRIPOS>BOND
     1     1     2 1   
     2     1    15 1   
     3     2     3 1   
     4     2    16 1   
     5     2    17 1   
     6     3     4 1   
     7     3    18 1   
     8     3    19 1   
     9     4     6 1   
    10     5     6 1   
    11     5     7 1   
    12     5    20 1   
    13     5    21 1   
    14     6    22 1   
    15     6    23 1   
    16     7     9 1   
    17     8     9 1   
    18     8    10 1   
    19     8    24 1   
    20     8    25 1   
    21     9    26 1   
    22     9    27 1   
    23    10    12 1   
    24    11    12 1   
    25    11    13 1   
    26    11    28 1   
    27    11    29 1   
    28    12    30 1   
    29    12    31 1   
    30    13    14 1   
    31    14    32 1   
    32    14    33 1   
    33    14    34 1   
@<TRIPOS>SUBSTRUCTURE
     1 ETE         1 TEMP              0 ****  ****    0 ROOT
