@<TRIPOS>MOLECULE
ETF
    9     8     1     0     0
SMALL
abcg2


@<TRIPOS>ATOM
      1 C1           0.0160     0.0060    -0.3060 c3         1 ETF       0.305000
      2 C2           0.8580     0.0190     0.9470 c3         1 ETF       0.092600
      3 O           -0.0070     0.0720     2.0430 oh         1 ETF      -0.635000
      4 F1           0.7980    -0.0440    -1.3930 f          1 ETF      -0.110333
      5 F2          -0.8030    -1.0500    -0.3560 f          1 ETF      -0.110333
      6 F3          -0.7490     1.0980    -0.4150 f          1 ETF      -0.110333
      7 H21          1.5300     0.8830     0.8910 h1         1 ETF       0.053700
      8 H22          1.4840    -0.8800     0.9400 h1         1 ETF       0.053700
      9 HO           0.5270     0.0680     2.8400 ho         1 ETF       0.461000
@<TRIPOS>BOND
     1     1     2 1   
     2     1     4 1   
     3     1     5 1   
     4     1     6 1   
     5     2     3 1   
     6     2     7 1   
     7     2     8 1   
     8     3     9 1   
@<TRIPOS>SUBSTRUCTURE
     1 ETF         1 TEMP              0 ****  ****    0 ROOT
