@<TRIPOS>MOLECULE
ETF
    9     8     1     0     0
SMALL
No Charge or Current Charge


@<TRIPOS>ATOM
      1 C1           0.0010     0.0050    -0.3630 c3         1 ETF       0.305000
      2 C2           0.8360     0.0180     0.9490 c3         1 ETF       0.092600
      3 O            0.0050     0.0700     2.1300 oh         1 ETF      -0.635000
      4 F1           0.8140    -0.0440    -1.4430 f          1 ETF      -0.110333
      5 F2          -0.8180    -1.0720    -0.4120 f          1 ETF      -0.110333
      6 F3          -0.7630     1.1180    -0.4690 f          1 ETF      -0.110333
      7 H21          1.5110     0.8850     0.9210 h1         1 ETF       0.053700
      8 H22          1.4660    -0.8820     0.9670 h1         1 ETF       0.053700
      9 HO           0.6030     0.0750     2.9120 ho         1 ETF       0.461000
@<TRIPOS>BOND
     1     1     2 1   
     2     1     4 1   
     3     1     5 1   
     4     1     6 1   
     5     2     3 1   
     6     2     7 1   
     7     2     8 1   
     8     3     9 1   
@<TRIPOS>SUBSTRUCTURE
     1 ETF         1 TEMP              0 ****  ****    0 ROOT
