@<TRIPOS>MOLECULE
ETG
   79    83     1     0     0
SMALL
bcc


@<TRIPOS>ATOM
      1 C1          -4.6260    -1.5250     2.5510 c6         1 ETG      -0.069067
      2 C2          -5.3390    -2.2930     1.4370 c6         1 ETG      -0.059700
      3 C3          -6.6220    -1.5570     1.0490 c6         1 ETG      -0.069067
      4 C4          -4.4200    -2.4020     0.2190 c6         1 ETG      -0.059400
      5 C5          -4.2700    -0.1250     2.0530 c6         1 ETG      -0.059700
      6 C6          -5.5490     0.6170     1.6560 c6         1 ETG      -0.069067
      7 C7          -3.3480    -0.2330     0.8360 c6         1 ETG      -0.059400
      8 C8          -6.2680    -0.1570     0.5490 c6         1 ETG      -0.059700
      9 C9          -4.0540    -1.0040    -0.2980 c6         1 ETG      -0.124000
     10 C10         -5.3540    -0.2640    -0.6730 c6         1 ETG      -0.059400
     11 C11          1.2450    -1.9940    -1.4660 ca         1 ETG      -0.186000
     12 C12          1.8830    -0.8500    -1.9700 ca         1 ETG      -0.072000
     13 C13          2.7710    -0.1340    -1.2180 ca         1 ETG      -0.169000
     14 C14          1.5020    -2.4320    -0.1880 ca         1 ETG       0.150600
     15 C15          2.3600    -1.6490     0.6510 ca         1 ETG      -0.066000
     16 C16          3.0170    -0.4990     0.1270 ca         1 ETG       0.060000
     17 C17          3.8520     0.2400     1.0190 ca         1 ETG      -0.303500
     18 C18          4.0120    -0.1280     2.3290 ca         1 ETG      -0.007000
     19 C19          3.3360    -1.2490     2.8330 ca         1 ETG      -0.176000
     20 C20          2.5240    -1.9810     2.0150 ca         1 ETG      -0.042000
     21 C22         -0.3080    -4.0400    -0.2490 c3         1 ETG       0.167100
     22 C23          1.8780    -4.7100     0.4780 c3         1 ETG       0.167100
     23 C24         -3.1510    -1.1180    -1.5240 c          1 ETG       0.671100
     24 N25         -2.7050     0.0430    -2.0320 ns         1 ETG      -0.564900
     25 C26         -1.7410     0.0940    -3.1080 c3         1 ETG       0.105000
     26 C27         -1.3980     1.5240    -3.4580 c3         1 ETG       0.116400
     27 O28         -0.9220     2.1700    -2.3050 os         1 ETG      -0.405600
     28 C29         -0.4590     3.4720    -2.5490 c3         1 ETG       0.137400
     29 C30         -0.1010     4.1370    -1.2440 c3         1 ETG       0.142400
     30 O31          0.9210     3.4100    -0.6090 os         1 ETG      -0.412600
     31 C32          1.4590     4.0550     0.5160 c3         1 ETG       0.130400
     32 C33          2.4930     3.1360     1.1280 c3         1 ETG       0.198800
     33 N34          3.4970     2.8130     0.1160 n7         1 ETG      -0.805100
     34 S36          4.6750     1.7320     0.5000 sy         1 ETG       1.286200
     35 O37          5.4220     1.4780    -0.7220 o          1 ETG      -0.609300
     36 O38         -2.8530    -2.1910    -2.0330 o          1 ETG      -0.620100
     37 H1          -5.2670    -1.4590     3.4360 hc         1 ETG       0.040867
     38 H1A         -3.7200    -2.0590     2.8560 hc         1 ETG       0.040867
     39 H2          -5.5850    -3.3010     1.7850 hc         1 ETG       0.050700
     40 H3          -7.1580    -2.1130     0.2730 hc         1 ETG       0.040867
     41 H3A         -7.2930    -1.4910     1.9110 hc         1 ETG       0.040867
     42 H4          -3.5120    -2.9510     0.4880 hc         1 ETG       0.047700
     43 H4A         -4.9150    -2.9760    -0.5690 hc         1 ETG       0.047700
     44 H5          -3.7500     0.4290     2.8400 hc         1 ETG       0.050700
     45 H6          -6.2050     0.7230     2.5260 hc         1 ETG       0.040867
     46 H6A         -5.3090     1.6290     1.3150 hc         1 ETG       0.040867
     47 H7          -3.0640     0.7740     0.5140 hc         1 ETG       0.047700
     48 H7A         -2.4190    -0.7440     1.1090 hc         1 ETG       0.047700
     49 H8          -7.1800     0.3750     0.2610 hc         1 ETG       0.050700
     50 H10         -5.8630    -0.8030    -1.4790 hc         1 ETG       0.047700
     51 H10A        -5.1330     0.7380    -1.0550 hc         1 ETG       0.047700
     52 H11          0.5770    -2.5460    -2.1130 ha         1 ETG       0.145000
     53 H12          1.6930    -0.5500    -2.9920 ha         1 ETG       0.130000
     54 H13          3.2880     0.6880    -1.6860 ha         1 ETG       0.139000
     55 H18          4.6400     0.4500     2.9910 ha         1 ETG       0.160000
     56 H19          3.4450    -1.5110     3.8770 ha         1 ETG       0.137000
     57 H20          1.9710    -2.8170     2.4210 ha         1 ETG       0.149000
     58 H22         -0.2000    -4.4520    -1.2610 h1         1 ETG       0.039200
     59 H22A        -0.7350    -4.8220     0.3780 h1         1 ETG       0.039200
     60 H22B        -1.0190    -3.2170    -0.2970 h1         1 ETG       0.039200
     61 H23          2.8030    -4.3880     0.9530 h1         1 ETG       0.039200
     62 H23A         1.4360    -5.4870     1.1010 h1         1 ETG       0.039200
     63 H23B         2.1350    -5.1530    -0.4930 h1         1 ETG       0.039200
     64 HN25        -2.8970     0.9000    -1.5390 hn         1 ETG       0.324500
     65 H26         -0.8310    -0.4440    -2.8260 h1         1 ETG       0.057700
     66 H26A        -2.1360    -0.3940    -4.0020 h1         1 ETG       0.057700
     67 H27         -0.6420     1.5120    -4.2540 h1         1 ETG       0.031200
     68 H27A        -2.2800     2.0450    -3.8570 h1         1 ETG       0.031200
     69 H29          0.4150     3.4570    -3.2150 h1         1 ETG       0.032200
     70 H29A        -1.2270     4.0850    -3.0400 h1         1 ETG       0.032200
     71 H30          0.2210     5.1640    -1.4660 h1         1 ETG       0.032200
     72 H30A        -0.9850     4.2080    -0.5970 h1         1 ETG       0.032200
     73 H32          1.9170     5.0140     0.2390 h1         1 ETG       0.035200
     74 H32A         0.6910     4.2610     1.2720 h1         1 ETG       0.035200
     75 H33          2.9670     3.6470     1.9650 h1         1 ETG       0.062700
     76 H33A         2.0000     2.2370     1.5160 h1         1 ETG       0.062700
     77 HN34         3.0870     2.6320    -0.7940 hn         1 ETG       0.440800
     78 N21          0.9400    -3.6030     0.3410 nh         1 ETG      -0.642000
     79 O35          5.3730     2.2680     1.6570 o          1 ETG      -0.609300
@<TRIPOS>BOND
     1     1     2 1   
     2     1     5 1   
     3     1    37 1   
     4     1    38 1   
     5     2     3 1   
     6     2     4 1   
     7     2    39 1   
     8     3     8 1   
     9     3    40 1   
    10     3    41 1   
    11     4     9 1   
    12     4    42 1   
    13     4    43 1   
    14     5     6 1   
    15     5     7 1   
    16     5    44 1   
    17     6     8 1   
    18     6    45 1   
    19     6    46 1   
    20     7     9 1   
    21     7    47 1   
    22     7    48 1   
    23     8    10 1   
    24     8    49 1   
    25     9    10 1   
    26     9    23 1   
    27    10    50 1   
    28    10    51 1   
    29    11    12 ar  
    30    11    14 ar  
    31    11    52 1   
    32    12    13 ar  
    33    12    53 1   
    34    13    16 ar  
    35    13    54 1   
    36    14    15 ar  
    37    14    78 1   
    38    15    16 ar  
    39    15    20 ar  
    40    16    17 ar  
    41    17    18 ar  
    42    17    34 1   
    43    18    19 ar  
    44    18    55 1   
    45    19    20 ar  
    46    19    56 1   
    47    20    57 1   
    48    21    58 1   
    49    21    59 1   
    50    21    60 1   
    51    21    78 1   
    52    22    61 1   
    53    22    62 1   
    54    22    63 1   
    55    22    78 1   
    56    23    24 1   
    57    23    36 2   
    58    24    25 1   
    59    24    64 1   
    60    25    26 1   
    61    25    65 1   
    62    25    66 1   
    63    26    27 1   
    64    26    67 1   
    65    26    68 1   
    66    27    28 1   
    67    28    29 1   
    68    28    69 1   
    69    28    70 1   
    70    29    30 1   
    71    29    71 1   
    72    29    72 1   
    73    30    31 1   
    74    31    32 1   
    75    31    73 1   
    76    31    74 1   
    77    32    33 1   
    78    32    75 1   
    79    32    76 1   
    80    33    34 1   
    81    33    77 1   
    82    34    35 2   
    83    34    79 2   
@<TRIPOS>SUBSTRUCTURE
     1 ETG         1 TEMP              0 ****  ****    0 ROOT
