@<TRIPOS>MOLECULE
ETG
   79    83     1     0     0
SMALL
No Charge or Current Charge


@<TRIPOS>ATOM
      1 C1          -3.0250    -1.1610     2.7240 c6         1 ETG      -0.069067
      2 C2          -4.3370    -1.4440     1.9390 c6         1 ETG      -0.059700
      3 C3          -5.2450    -0.1780     1.9730 c6         1 ETG      -0.069067
      4 C4          -3.9900    -1.7940     0.4630 c6         1 ETG      -0.059400
      5 C5          -2.2830     0.0380     2.0730 c6         1 ETG      -0.059700
      6 C6          -3.1870     1.3000     2.1260 c6         1 ETG      -0.069067
      7 C7          -1.9590    -0.3040     0.5910 c6         1 ETG      -0.059400
      8 C8          -4.4960     1.0300     1.3350 c6         1 ETG      -0.059700
      9 C9          -3.2730    -0.5930    -0.2350 c6         1 ETG      -0.124000
     10 C10         -4.1440     0.7040    -0.1460 c6         1 ETG      -0.059400
     11 C11          1.9760    -2.0320    -1.8520 ca         1 ETG      -0.168000
     12 C12          2.5470    -0.7570    -1.8600 ca         1 ETG      -0.054000
     13 C13          2.5930     0.0000    -0.6820 ca         1 ETG      -0.151000
     14 C14          1.4290    -2.5620    -0.6750 ca         1 ETG       0.289000
     15 C15          1.4660    -1.7970     0.5220 ca         1 ETG      -0.066000
     16 C16          2.0630    -0.5020     0.5320 ca         1 ETG       0.060000
     17 C17          2.1120     0.2380     1.7540 ca         1 ETG      -0.303500
     18 C18          1.5400    -0.3140     2.9210 ca         1 ETG       0.011000
     19 C19          0.9530    -1.5840     2.8990 ca         1 ETG      -0.158000
     20 C20          0.9270    -2.3270     1.7150 ca         1 ETG      -0.024000
     21 C22         -0.5950    -4.0340    -0.8500 c3         1 ETG       0.167100
     22 C23          1.7100    -5.0120    -1.1100 c3         1 ETG       0.167100
     23 C24         -2.9620    -0.9380    -1.7250 c          1 ETG       0.604100
     24 N25         -1.6380    -1.0380    -2.0820 ns         1 ETG      -0.497900
     25 C26         -1.1400    -0.9490    -3.4600 c3         1 ETG       0.105000
     26 C27         -1.1370     0.5080    -3.9910 c3         1 ETG       0.139600
     27 O28         -0.8940     1.3870    -2.8760 os         1 ETG      -0.452000
     28 C29         -0.7010     2.7770    -3.1900 c3         1 ETG       0.160600
     29 C30         -0.9500     3.6010    -1.9030 c3         1 ETG       0.165600
     30 O31         -0.0840     3.1260    -0.8520 os         1 ETG      -0.459000
     31 C32         -0.2490     3.8030     0.4110 c3         1 ETG       0.153600
     32 C33          0.5630     3.0370     1.4820 c3         1 ETG       0.198800
     33 N34          1.9540     2.8430     1.0290 n7         1 ETG      -0.860300
     34 S36          2.9300     1.8440     1.9370 sy         1 ETG       1.144600
     35 O37          4.2190     1.8460     1.2420 o          1 ETG      -0.538500
     36 O38         -3.8530    -1.0910    -2.5510 o          1 ETG      -0.620100
     37 H1          -3.2510    -0.9430     3.7770 hc         1 ETG       0.040867
     38 H1A         -2.3810    -2.0520     2.7220 hc         1 ETG       0.040867
     39 H2          -4.8660    -2.2880     2.4020 hc         1 ETG       0.050700
     40 H3          -6.1820    -0.3700     1.4330 hc         1 ETG       0.040867
     41 H3A         -5.5270     0.0560     3.0080 hc         1 ETG       0.040867
     42 H4          -3.3580    -2.6930     0.4260 hc         1 ETG       0.047700
     43 H4A         -4.9110    -2.0470    -0.0800 hc         1 ETG       0.047700
     44 H5          -1.3510     0.2330     2.6200 hc         1 ETG       0.050700
     45 H6          -3.4180     1.5590     3.1680 hc         1 ETG       0.040867
     46 H6A         -2.6590     2.1640     1.7010 hc         1 ETG       0.040867
     47 H7          -1.3960     0.5270     0.1420 hc         1 ETG       0.047700
     48 H7A         -1.2950    -1.1760     0.5690 hc         1 ETG       0.047700
     49 H8          -5.1370     1.9210     1.3720 hc         1 ETG       0.050700
     50 H10         -5.0720     0.5730    -0.7190 hc         1 ETG       0.047700
     51 H10A        -3.6160     1.5510    -0.6060 hc         1 ETG       0.047700
     52 H11          1.9500    -2.6150    -2.7680 ha         1 ETG       0.127000
     53 H12          2.9620    -0.3540    -2.7810 ha         1 ETG       0.112000
     54 H13          3.0580     0.9750    -0.7520 ha         1 ETG       0.121000
     55 H18          1.5600     0.2270     3.8650 ha         1 ETG       0.142000
     56 H19          0.5260    -1.9990     3.8080 ha         1 ETG       0.119000
     57 H20          0.4790    -3.3170     1.7350 ha         1 ETG       0.131000
     58 H22         -0.9190    -3.8620    -1.8850 h1         1 ETG       0.039200
     59 H22A        -0.8880    -5.0510    -0.5560 h1         1 ETG       0.039200
     60 H22B        -1.1220    -3.3310    -0.1930 h1         1 ETG       0.039200
     61 H23          2.7670    -4.8040    -0.8950 h1         1 ETG       0.039200
     62 H23A         1.4200    -5.9040    -0.5380 h1         1 ETG       0.039200
     63 H23B         1.6070    -5.2300    -2.1810 h1         1 ETG       0.039200
     64 HN25        -0.9700    -0.8610    -1.3440 hn         1 ETG       0.324500
     65 H26         -0.1130    -1.3330    -3.4790 h1         1 ETG       0.057700
     66 H26A        -1.7460    -1.5850    -4.1180 h1         1 ETG       0.057700
     67 H27         -0.3670     0.6160    -4.7660 h1         1 ETG       0.031200
     68 H27A        -2.1150     0.7310    -4.4380 h1         1 ETG       0.031200
     69 H29          0.3170     2.9550    -3.5610 h1         1 ETG       0.032200
     70 H29A        -1.4120     3.1060    -3.9590 h1         1 ETG       0.032200
     71 H30         -0.7580     4.6620    -2.1130 h1         1 ETG       0.032200
     72 H30A        -2.0030     3.4970    -1.6120 h1         1 ETG       0.032200
     73 H32          0.1150     4.8370     0.3430 h1         1 ETG       0.035200
     74 H32A        -1.3050     3.8290     0.7110 h1         1 ETG       0.035200
     75 H33          0.5310     3.6010     2.4240 h1         1 ETG       0.062700
     76 H33A         0.0670     2.0730     1.6570 h1         1 ETG       0.062700
     77 HN34         1.8890     2.3300     0.1530 hn         1 ETG       0.496000
     78 N21          0.8670    -3.8600    -0.7310 nh         1 ETG      -0.780400
     79 O35          2.8170     2.3230     3.3170 o          1 ETG      -0.538500
@<TRIPOS>BOND
     1     1     2 1   
     2     1     5 1   
     3     1    37 1   
     4     1    38 1   
     5     2     3 1   
     6     2     4 1   
     7     2    39 1   
     8     3     8 1   
     9     3    40 1   
    10     3    41 1   
    11     4     9 1   
    12     4    42 1   
    13     4    43 1   
    14     5     6 1   
    15     5     7 1   
    16     5    44 1   
    17     6     8 1   
    18     6    45 1   
    19     6    46 1   
    20     7     9 1   
    21     7    47 1   
    22     7    48 1   
    23     8    10 1   
    24     8    49 1   
    25     9    10 1   
    26     9    23 1   
    27    10    50 1   
    28    10    51 1   
    29    11    12 ar  
    30    11    14 ar  
    31    11    52 1   
    32    12    13 ar  
    33    12    53 1   
    34    13    16 ar  
    35    13    54 1   
    36    14    15 ar  
    37    14    78 1   
    38    15    16 ar  
    39    15    20 ar  
    40    16    17 ar  
    41    17    18 ar  
    42    17    34 1   
    43    18    19 ar  
    44    18    55 1   
    45    19    20 ar  
    46    19    56 1   
    47    20    57 1   
    48    21    58 1   
    49    21    59 1   
    50    21    60 1   
    51    21    78 1   
    52    22    61 1   
    53    22    62 1   
    54    22    63 1   
    55    22    78 1   
    56    23    24 1   
    57    23    36 2   
    58    24    25 1   
    59    24    64 1   
    60    25    26 1   
    61    25    65 1   
    62    25    66 1   
    63    26    27 1   
    64    26    67 1   
    65    26    68 1   
    66    27    28 1   
    67    28    29 1   
    68    28    69 1   
    69    28    70 1   
    70    29    30 1   
    71    29    71 1   
    72    29    72 1   
    73    30    31 1   
    74    31    32 1   
    75    31    73 1   
    76    31    74 1   
    77    32    33 1   
    78    32    75 1   
    79    32    76 1   
    80    33    34 1   
    81    33    77 1   
    82    34    35 2   
    83    34    79 2   
@<TRIPOS>SUBSTRUCTURE
     1 ETG         1 TEMP              0 ****  ****    0 ROOT
