@<TRIPOS>MOLECULE
ETI
    8     7     1     0     0
SMALL
bcc


@<TRIPOS>ATOM
      1 C1          -1.5480     0.6970     0.0150 c3         1 ETI       0.124500
      2 C2          -2.5230    -0.4530    -0.0020 c3         1 ETI      -0.089100
      3 I            0.5250    -0.0080     0.0560 i          1 ETI      -0.309900
      4 H11         -1.6150     1.3170    -0.8750 h1         1 ETI       0.068200
      5 H12         -1.6490     1.3210     0.8990 h1         1 ETI       0.068200
      6 H21         -2.4350    -1.0760     0.8860 hc         1 ETI       0.046367
      7 H22         -3.5350    -0.0420    -0.0230 hc         1 ETI       0.046367
      8 H23         -2.3990    -1.0810    -0.8830 hc         1 ETI       0.046367
@<TRIPOS>BOND
     1     1     2 1   
     2     1     3 1   
     3     1     4 1   
     4     1     5 1   
     5     2     6 1   
     6     2     7 1   
     7     2     8 1   
@<TRIPOS>SUBSTRUCTURE
     1 ETI         1 TEMP              0 ****  ****    0 ROOT
