@<TRIPOS>MOLECULE
ETI
    8     7     1     0     0
SMALL
No Charge or Current Charge


@<TRIPOS>ATOM
      1 C1          -1.5320     0.7050     0.0150 c3         1 ETI       0.118600
      2 C2          -2.5470    -0.4500    -0.0020 c3         1 ETI      -0.089100
      3 I            0.5880    -0.0230     0.0580 i          1 ETI      -0.304000
      4 H11         -1.6250     1.3250    -0.8860 h1         1 ETI       0.068200
      5 H12         -1.6600     1.3290     0.9090 h1         1 ETI       0.068200
      6 H21         -2.4330    -1.0750     0.8910 hc         1 ETI       0.046367
      7 H22         -3.5710    -0.0580    -0.0230 hc         1 ETI       0.046367
      8 H23         -2.3990    -1.0780    -0.8880 hc         1 ETI       0.046367
@<TRIPOS>BOND
     1     1     2 1   
     2     1     3 1   
     3     1     4 1   
     4     1     5 1   
     5     2     6 1   
     6     2     7 1   
     7     2     8 1   
@<TRIPOS>SUBSTRUCTURE
     1 ETI         1 TEMP              0 ****  ****    0 ROOT
