@<TRIPOS>MOLECULE
ETJ
   39    41     1     0     0
SMALL
abcg2


@<TRIPOS>ATOM
      1 C1         137.0260   132.6980   112.5140 c6         1 ETJ       0.135300
      2 C3         137.2340   132.5680   114.9910 ca         1 ETJ      -0.193300
      3 C4         134.3630   133.2860   113.9870 c5         1 ETJ       0.093000
      4 C5         132.9790   132.8270   114.4430 c5         1 ETJ      -0.092400
      5 C7         134.3140   130.9400   113.8240 c          1 ETJ       0.562000
      6 C8         132.8770   131.4090   113.8930 c5         1 ETJ      -0.168400
      7 C9         139.0500   133.5520   111.2950 c3         1 ETJ      -0.098100
      8 C10        139.2120   131.3750   112.5210 c3         1 ETJ      -0.098100
      9 C11        136.7170   132.4090   116.2660 ca         1 ETJ      -0.016000
     10 C12        139.0800   133.8230   115.9440 ca         1 ETJ      -0.158000
     11 C13        137.3640   132.9480   117.3740 ca         1 ETJ      -0.067000
     12 N          135.1060   132.0400   113.9030 n          1 ETJ      -0.427800
     13 C          136.5390   131.9900   113.7810 c6         1 ETJ       0.137000
     14 O          138.9960   133.5000   113.6440 os         1 ETJ      -0.349100
     15 C14        138.5540   133.6630   117.2060 ca         1 ETJ      -0.032000
     16 C15        136.8090   132.7760   118.6740 cg         1 ETJ       0.331000
     17 C2         138.5600   132.7520   112.4910 c6         1 ETJ       0.200000
     18 C6         138.4280   133.2790   114.8330 ca         1 ETJ       0.182100
     19 N1         136.3620   132.6390   119.7280 n1         1 ETJ      -0.460000
     20 O1         136.5870   132.0330   111.3620 oh         1 ETJ      -0.643000
     21 H1         136.6730   133.7400   112.5280 h1         1 ETJ       0.044700
     22 H2         134.3190   133.7820   113.0110 h1         1 ETJ       0.047700
     23 H3         132.9370   132.8100   115.5340 hc         1 ETJ       0.060700
     24 H4         132.2720   130.7350   114.4980 hc         1 ETJ       0.079200
     25 H5         132.4680   131.3970   112.8790 hc         1 ETJ       0.079200
     26 H6         138.5850   134.5380   111.2600 hc         1 ETJ       0.054033
     27 H7         140.1320   133.6820   111.3420 hc         1 ETJ       0.054033
     28 H8         138.8170   133.0310   110.3690 hc         1 ETJ       0.054033
     29 H9         138.9860   130.8190   113.4320 hc         1 ETJ       0.054033
     30 H10        138.8790   130.7770   111.6740 hc         1 ETJ       0.054033
     31 H11        140.2950   131.4730   112.4540 hc         1 ETJ       0.054033
     32 H12        135.7900   131.8640   116.3990 ha         1 ETJ       0.131000
     33 H13        140.0000   134.3730   115.8020 ha         1 ETJ       0.135000
     34 H14        136.7980   130.9300   113.6980 h1         1 ETJ       0.109700
     35 H15        139.0620   134.0870   118.0610 ha         1 ETJ       0.128000
     36 H16        135.6760   132.2850   111.1830 ho         1 ETJ       0.452000
     37 H17        134.8320   133.9750   114.6900 h1         1 ETJ       0.047700
     38 H18        132.1910   133.4870   114.0880 hc         1 ETJ       0.060700
     39 O2         134.7040   129.7930   113.7040 o          1 ETJ      -0.534000
@<TRIPOS>BOND
     1     1    13 1   
     2     1    17 1   
     3     1    20 1   
     4     1    21 1   
     5     2     9 ar  
     6     2    13 1   
     7     2    18 ar  
     8     3     4 1   
     9     3    12 1   
    10     3    22 1   
    11     3    37 1   
    12     4     6 1   
    13     4    23 1   
    14     4    38 1   
    15     5     6 1   
    16     5    12 1   
    17     5    39 2   
    18     6    24 1   
    19     6    25 1   
    20     7    17 1   
    21     7    26 1   
    22     7    27 1   
    23     7    28 1   
    24     8    17 1   
    25     8    29 1   
    26     8    30 1   
    27     8    31 1   
    28     9    11 ar  
    29     9    32 1   
    30    10    15 ar  
    31    10    18 ar  
    32    10    33 1   
    33    11    15 ar  
    34    11    16 1   
    35    12    13 1   
    36    13    34 1   
    37    14    17 1   
    38    14    18 1   
    39    15    35 1   
    40    16    19 3   
    41    20    36 1   
@<TRIPOS>SUBSTRUCTURE
     1 ETJ         1 TEMP              0 ****  ****    0 ROOT
