@<TRIPOS>MOLECULE
ETJ
   39    41     1     0     0
SMALL
No Charge or Current Charge


@<TRIPOS>ATOM
      1 C1         137.0560   132.6260   112.3590 c6         1 ETJ       0.135300
      2 C3         137.1920   132.5310   114.9130 ca         1 ETJ      -0.193300
      3 C4         134.3580   133.3570   113.8500 c5         1 ETJ       0.093000
      4 C5         133.0690   132.9560   114.6330 c5         1 ETJ      -0.092400
      5 C7         134.2250   130.9490   114.0080 c          1 ETJ       0.562000
      6 C8         132.8180   131.5310   114.0720 c5         1 ETJ      -0.168400
      7 C9         139.1500   133.6050   111.2160 c3         1 ETJ      -0.098100
      8 C10        139.3920   131.4510   112.5130 c3         1 ETJ      -0.098100
      9 C11        136.6490   132.2770   116.1920 ca         1 ETJ      -0.016000
     10 C12        138.9600   133.8510   115.9620 ca         1 ETJ      -0.158000
     11 C13        137.2490   132.8160   117.3450 ca         1 ETJ      -0.067000
     12 N          135.0370   132.0470   113.7180 n          1 ETJ      -0.427800
     13 C          136.5200   131.9550   113.6560 c6         1 ETJ       0.137000
     14 O          138.9690   133.5670   113.5960 os         1 ETJ      -0.349100
     15 C14        138.4040   133.6100   117.2280 ca         1 ETJ      -0.032000
     16 C15        136.6790   132.5590   118.6380 cg         1 ETJ       0.331000
     17 C2         138.6080   132.7980   112.4290 c6         1 ETJ       0.200000
     18 C6         138.3710   133.3070   114.8110 ca         1 ETJ       0.182100
     19 N1         136.2070   132.3490   119.6860 n1         1 ETJ      -0.460000
     20 O1         136.6380   131.8810   111.1970 oh         1 ETJ      -0.643000
     21 H1         136.6300   133.6390   112.3080 h1         1 ETJ       0.044700
     22 H2         134.1160   133.7660   112.8600 h1         1 ETJ       0.047700
     23 H3         133.2600   132.9280   115.7130 hc         1 ETJ       0.060700
     24 H4         132.1420   130.9020   114.6610 hc         1 ETJ       0.079200
     25 H5         132.4440   131.6310   113.0470 hc         1 ETJ       0.079200
     26 H6         138.6440   134.5740   111.1280 hc         1 ETJ       0.054033
     27 H7         140.2250   133.8000   111.3130 hc         1 ETJ       0.054033
     28 H8         138.9960   133.0650   110.2740 hc         1 ETJ       0.054033
     29 H9         139.1230   130.8710   113.4030 hc         1 ETJ       0.054033
     30 H10        139.1950   130.8220   111.6370 hc         1 ETJ       0.054033
     31 H11        140.4740   131.6250   112.5550 hc         1 ETJ       0.054033
     32 H12        135.7560   131.6630   116.2930 ha         1 ETJ       0.131000
     33 H13        139.8580   134.4560   115.8710 ha         1 ETJ       0.135000
     34 H14        136.8000   130.8910   113.6090 h1         1 ETJ       0.109700
     35 H15        138.8740   134.0340   118.1140 ha         1 ETJ       0.128000
     36 H16        135.6610   131.8020   111.2560 ho         1 ETJ       0.452000
     37 H17        134.9600   134.0960   114.3960 h1         1 ETJ       0.047700
     38 H18        132.2350   133.6450   114.4600 hc         1 ETJ       0.060700
     39 O2         134.6290   129.8510   114.3610 o          1 ETJ      -0.534000
@<TRIPOS>BOND
     1     1    13 1   
     2     1    17 1   
     3     1    20 1   
     4     1    21 1   
     5     2     9 ar  
     6     2    13 1   
     7     2    18 ar  
     8     3     4 1   
     9     3    12 1   
    10     3    22 1   
    11     3    37 1   
    12     4     6 1   
    13     4    23 1   
    14     4    38 1   
    15     5     6 1   
    16     5    12 1   
    17     5    39 2   
    18     6    24 1   
    19     6    25 1   
    20     7    17 1   
    21     7    26 1   
    22     7    27 1   
    23     7    28 1   
    24     8    17 1   
    25     8    29 1   
    26     8    30 1   
    27     8    31 1   
    28     9    11 ar  
    29     9    32 1   
    30    10    15 ar  
    31    10    18 ar  
    32    10    33 1   
    33    11    15 ar  
    34    11    16 1   
    35    12    13 1   
    36    13    34 1   
    37    14    17 1   
    38    14    18 1   
    39    15    35 1   
    40    16    19 3   
    41    20    36 1   
@<TRIPOS>SUBSTRUCTURE
     1 ETJ         1 TEMP              0 ****  ****    0 ROOT
