@<TRIPOS>MOLECULE
ETK
   60    62     1     0     0
SMALL
bcc


@<TRIPOS>ATOM
      1 F14          0.2890     2.2080    -2.3440 f          1 ETK      -0.097900
      2 C11         -0.3500     1.4600    -1.4550 ca         1 ETK       0.134900
      3 C10          0.0050     0.1340    -1.2760 ca         1 ETK      -0.002100
      4 S16          1.2940    -0.5960    -2.2260 ss         1 ETK      -0.286000
      5 C17          2.7230    -0.1350    -1.1810 c3         1 ETK       0.032700
      6 C18          3.9970    -0.6970    -1.8040 c3         1 ETK      -0.009100
      7 C19          5.1820    -0.3520    -0.9430 ca         1 ETK      -0.131300
      8 C24          5.7850     0.9010    -1.0280 ca         1 ETK      -0.152500
      9 C23          6.8460     1.2360    -0.2010 ca         1 ETK      -0.106500
     10 C22          7.3380     0.3310     0.7370 ca         1 ETK      -0.123600
     11 C25          8.5000     0.7000     1.6490 c          1 ETK       0.922200
     12 O27          8.8720    -0.1710     2.4600 o          1 ETK      -0.824300
     13 O26          8.9800     1.8410     1.5080 o          1 ETK      -0.824300
     14 C21          6.7360    -0.9220     0.8180 ca         1 ETK      -0.106500
     15 C20          5.6730    -1.2590    -0.0080 ca         1 ETK      -0.152500
     16 C12         -1.3560     2.0320    -0.7050 ca         1 ETK       0.164900
     17 F13         -1.6430     3.3100    -0.9290 f          1 ETK      -0.099900
     18 C7          -2.0460     1.2930     0.2510 ca         1 ETK      -0.224500
     19 S4          -3.1720     2.2280     1.2950 sy         1 ETK       1.290200
     20 O5          -2.4750     3.4490     1.6620 o          1 ETK      -0.595800
     21 N1          -4.3250     2.6440     0.1970 n8         1 ETK      -0.914700
     22 O6          -3.6960     1.3970     2.3560 o          1 ETK      -0.595800
     23 C8          -1.7600    -0.0690     0.4220 ca         1 ETK       0.151600
     24 C9          -0.7230    -0.5940    -0.3500 ca         1 ETK       0.116900
     25 F15         -0.4110    -1.8770    -0.1770 f          1 ETK      -0.119900
     26 N58         -2.4600    -0.8910     1.3170 nu         1 ETK      -0.714600
     27 C28         -3.4880    -1.7810     0.7300 c3         1 ETK       0.203500
     28 C35         -4.6080    -0.9610     0.1040 c3         1 ETK      -0.076900
     29 C34         -5.6830    -1.7380    -0.6600 c3         1 ETK      -0.066400
     30 C33         -5.1730    -2.8370    -1.6050 c3         1 ETK      -0.071900
     31 C32         -5.2760    -4.2610    -1.0600 c3         1 ETK      -0.071400
     32 C31         -4.4650    -4.6330     0.1820 c3         1 ETK      -0.071900
     33 C30         -4.8410    -3.8820     1.4680 c3         1 ETK      -0.066400
     34 C29         -3.9250    -2.7180     1.8500 c3         1 ETK      -0.076900
     35 H1           2.7760     0.9510    -1.1120 h1         1 ETK       0.071700
     36 H2           2.5710    -0.5420    -0.1810 h1         1 ETK       0.071700
     37 H3           3.9100    -1.7800    -1.9030 hc         1 ETK       0.046700
     38 H4           4.1260    -0.2880    -2.8090 hc         1 ETK       0.046700
     39 H5           5.4200     1.6220    -1.7510 ha         1 ETK       0.103500
     40 H6           7.3000     2.2140    -0.2830 ha         1 ETK       0.146500
     41 H8           7.1060    -1.6430     1.5350 ha         1 ETK       0.146500
     42 H9           5.2210    -2.2410     0.0720 ha         1 ETK       0.103500
     43 H10         -5.0730     1.9650     0.1150 hn         1 ETK       0.422800
     44 H11         -4.6920     3.5760     0.3610 hn         1 ETK       0.422800
     45 H12         -1.8010    -1.4590     1.8350 hn         1 ETK       0.394800
     46 H13         -3.0330    -2.3910    -0.0620 h1         1 ETK       0.036700
     47 H14         -5.0850    -0.3610     0.8830 hc         1 ETK       0.046450
     48 H15         -4.1550    -0.2610    -0.6060 hc         1 ETK       0.046450
     49 H16         -6.4100    -2.1660     0.0310 hc         1 ETK       0.036700
     50 H17         -6.2430    -1.0010    -1.2400 hc         1 ETK       0.036700
     51 H18         -5.7700    -2.8110    -2.5200 hc         1 ETK       0.039200
     52 H19         -4.1480    -2.6230    -1.9250 hc         1 ETK       0.039200
     53 H20         -6.3320    -4.4650    -0.8470 hc         1 ETK       0.032700
     54 H21         -4.9980    -4.9510    -1.8630 hc         1 ETK       0.032700
     55 H22         -4.6210    -5.7030     0.3460 hc         1 ETK       0.039200
     56 H23         -3.3950    -4.5280    -0.0210 hc         1 ETK       0.039200
     57 H24         -5.8780    -3.5490     1.4090 hc         1 ETK       0.036700
     58 H25         -4.8150    -4.5820     2.3070 hc         1 ETK       0.036700
     59 H26         -3.0160    -3.1460     2.2870 hc         1 ETK       0.046450
     60 H27         -4.3930    -2.1270     2.6430 hc         1 ETK       0.046450
@<TRIPOS>BOND
     1     1     2 1   
     2     2     3 ar  
     3     2    16 ar  
     4     3     4 1   
     5     3    24 ar  
     6     4     5 1   
     7     5     6 1   
     8     5    35 1   
     9     5    36 1   
    10     6     7 1   
    11     6    37 1   
    12     6    38 1   
    13     7     8 ar  
    14     7    15 ar  
    15     8     9 ar  
    16     8    39 1   
    17     9    10 ar  
    18     9    40 1   
    19    10    11 1   
    20    10    14 ar  
    21    11    12 1   
    22    11    13 1   
    23    14    15 ar  
    24    14    41 1   
    25    15    42 1   
    26    16    17 1   
    27    16    18 ar  
    28    18    19 1   
    29    18    23 ar  
    30    19    20 2   
    31    19    21 1   
    32    19    22 2   
    33    21    43 1   
    34    21    44 1   
    35    23    24 ar  
    36    23    26 1   
    37    24    25 1   
    38    26    27 1   
    39    26    45 1   
    40    27    28 1   
    41    27    34 1   
    42    27    46 1   
    43    28    29 1   
    44    28    47 1   
    45    28    48 1   
    46    29    30 1   
    47    29    49 1   
    48    29    50 1   
    49    30    31 1   
    50    30    51 1   
    51    30    52 1   
    52    31    32 1   
    53    31    53 1   
    54    31    54 1   
    55    32    33 1   
    56    32    55 1   
    57    32    56 1   
    58    33    34 1   
    59    33    57 1   
    60    33    58 1   
    61    34    59 1   
    62    34    60 1   
@<TRIPOS>SUBSTRUCTURE
     1 ETK         1 TEMP              0 ****  ****    0 ROOT
