@<TRIPOS>MOLECULE
ETK
   60    62     1     0     0
SMALL
No Charge or Current Charge


@<TRIPOS>ATOM
      1 F14          0.7690     2.4750    -1.3100 f          1 ETK      -0.133000
      2 C11         -0.1220     1.6850    -0.6640 ca         1 ETK       0.170000
      3 C10         -0.0660     0.2920    -0.8250 ca         1 ETK      -0.129000
      4 S16          1.1920    -0.4700    -1.8590 ss         1 ETK      -0.207000
      5 C17          2.7720    -0.0280    -1.0060 c3         1 ETK       0.080600
      6 C18          3.9750    -0.6560    -1.7320 c3         1 ETK      -0.009100
      7 C19          5.2930    -0.3120    -1.0500 ca         1 ETK      -0.131300
      8 C24          5.9790     0.8670    -1.3860 ca         1 ETK      -0.134500
      9 C23          7.1930     1.1910    -0.7540 ca         1 ETK      -0.088500
     10 C22          7.7450     0.3390     0.2320 ca         1 ETK      -0.123600
     11 C25          9.0580     0.6870     0.9170 c          1 ETK       0.711600
     12 O27          9.4990    -0.0790     1.7640 o          1 ETK      -0.719000
     13 O26          9.6300     1.7200     0.5990 o          1 ETK      -0.719000
     14 C21          7.0440    -0.8450     0.5640 ca         1 ETK      -0.088500
     15 C20          5.8310    -1.1650    -0.0710 ca         1 ETK      -0.134500
     16 C12         -1.1020     2.2700     0.1550 ca         1 ETK       0.200000
     17 F13         -1.1130     3.6200     0.2640 f          1 ETK      -0.135000
     18 C7          -2.0600     1.4770     0.8300 ca         1 ETK      -0.224500
     19 S4          -3.2620     2.3190     1.8770 sy         1 ETK       1.148600
     20 O5          -2.6530     3.4540     2.5670 o          1 ETK      -0.525000
     21 N1          -4.2650     3.0370     0.8070 n8         1 ETK      -1.025100
     22 O6          -4.1330     1.3850     2.5860 o          1 ETK      -0.525000
     23 C8          -2.0420     0.0680     0.6460 ca         1 ETK       0.290000
     24 C9          -1.0260    -0.5080    -0.1760 ca         1 ETK       0.152000
     25 F15         -0.9410    -1.8520    -0.3350 f          1 ETK      -0.155000
     26 N58         -3.0100    -0.7510     1.2670 nu         1 ETK      -0.908200
     27 C28         -3.7980    -1.8190     0.6280 c3         1 ETK       0.203500
     28 C35         -4.5470    -1.2340    -0.6020 c3         1 ETK      -0.076900
     29 C34         -5.3370    -2.2210    -1.4980 c3         1 ETK      -0.066400
     30 C33         -4.6150    -3.5520    -1.8340 c3         1 ETK      -0.071900
     31 C32         -5.0640    -4.7840    -1.0050 c3         1 ETK      -0.071400
     32 C31         -4.7560    -4.7870     0.5160 c3         1 ETK      -0.071900
     33 C30         -5.5070    -3.7190     1.3530 c3         1 ETK      -0.066400
     34 C29         -4.6920    -2.4530     1.7250 c3         1 ETK      -0.076900
     35 H1           2.8850     1.0620    -0.9850 h1         1 ETK       0.071700
     36 H2           2.7330    -0.3940     0.0280 h1         1 ETK       0.071700
     37 H3           3.8400    -1.7440    -1.7720 hc         1 ETK       0.046700
     38 H4           3.9860    -0.3090    -2.7730 hc         1 ETK       0.046700
     39 H5           5.5730     1.5390    -2.1390 ha         1 ETK       0.085500
     40 H6           7.7030     2.1100    -1.0330 ha         1 ETK       0.128500
     41 H8           7.4380    -1.5230     1.3180 ha         1 ETK       0.128500
     42 H9           5.3100    -2.0790     0.2030 ha         1 ETK       0.085500
     43 H10         -5.1660     2.7140     1.1520 hn         1 ETK       0.478000
     44 H11         -4.2360     3.9970     1.1430 hn         1 ETK       0.478000
     45 H12         -3.5220    -0.2720     2.0110 hn         1 ETK       0.450000
     46 H13         -3.1080    -2.5940     0.2780 h1         1 ETK       0.036700
     47 H14         -5.2280    -0.4420    -0.2680 hc         1 ETK       0.046450
     48 H15         -3.8090    -0.7450    -1.2500 hc         1 ETK       0.046450
     49 H16         -6.3260    -2.4190    -1.0720 hc         1 ETK       0.036700
     50 H17         -5.5420    -1.7010    -2.4430 hc         1 ETK       0.036700
     51 H18         -4.8200    -3.7830    -2.8870 hc         1 ETK       0.039200
     52 H19         -3.5270    -3.4280    -1.7710 hc         1 ETK       0.039200
     53 H20         -6.1420    -4.9300    -1.1470 hc         1 ETK       0.032700
     54 H21         -4.5850    -5.6690    -1.4420 hc         1 ETK       0.032700
     55 H22         -5.0510    -5.7720     0.8980 hc         1 ETK       0.039200
     56 H23         -3.6750    -4.7220     0.6840 hc         1 ETK       0.039200
     57 H24         -6.4450    -3.4390     0.8620 hc         1 ETK       0.036700
     58 H25         -5.8170    -4.1870     2.2950 hc         1 ETK       0.036700
     59 H26         -4.0410    -2.7270     2.5650 hc         1 ETK       0.046450
     60 H27         -5.3830    -1.6950     2.1120 hc         1 ETK       0.046450
@<TRIPOS>BOND
     1     1     2 1   
     2     2     3 ar  
     3     2    16 ar  
     4     3     4 1   
     5     3    24 ar  
     6     4     5 1   
     7     5     6 1   
     8     5    35 1   
     9     5    36 1   
    10     6     7 1   
    11     6    37 1   
    12     6    38 1   
    13     7     8 ar  
    14     7    15 ar  
    15     8     9 ar  
    16     8    39 1   
    17     9    10 ar  
    18     9    40 1   
    19    10    11 1   
    20    10    14 ar  
    21    11    12 1   
    22    11    13 1   
    23    14    15 ar  
    24    14    41 1   
    25    15    42 1   
    26    16    17 1   
    27    16    18 ar  
    28    18    19 1   
    29    18    23 ar  
    30    19    20 2   
    31    19    21 1   
    32    19    22 2   
    33    21    43 1   
    34    21    44 1   
    35    23    24 ar  
    36    23    26 1   
    37    24    25 1   
    38    26    27 1   
    39    26    45 1   
    40    27    28 1   
    41    27    34 1   
    42    27    46 1   
    43    28    29 1   
    44    28    47 1   
    45    28    48 1   
    46    29    30 1   
    47    29    49 1   
    48    29    50 1   
    49    30    31 1   
    50    30    51 1   
    51    30    52 1   
    52    31    32 1   
    53    31    53 1   
    54    31    54 1   
    55    32    33 1   
    56    32    55 1   
    57    32    56 1   
    58    33    34 1   
    59    33    57 1   
    60    33    58 1   
    61    34    59 1   
    62    34    60 1   
@<TRIPOS>SUBSTRUCTURE
     1 ETK         1 TEMP              0 ****  ****    0 ROOT
