@<TRIPOS>MOLECULE
ETL
   55    59     1     0     0
SMALL
abcg2


@<TRIPOS>ATOM
      1 N15         16.9890    16.4070    -1.3040 n          1 ETL      -0.405800
      2 C17         17.6960    17.8310     0.4190 c5         1 ETL      -0.095400
      3 C18         18.4640    18.2000    -0.8530 c5         1 ETL      -0.081400
      4 C19         17.6610    17.5150    -1.9780 c5         1 ETL       0.033700
      5 C20         16.6430    18.4770    -2.5970 c          1 ETL       0.615100
      6 O21         15.5960    18.7630    -2.0330 o          1 ETL      -0.589100
      7 C02         12.4420    15.8300     1.3420 ca         1 ETL       0.123000
      8 C03         12.8230    16.6050     0.2580 ca         1 ETL      -0.102000
      9 C04         13.8330    16.1460    -0.5800 ca         1 ETL      -0.095500
     10 C05         14.4750    14.9290    -0.3450 ca         1 ETL      -0.078300
     11 C06         14.0610    14.1690     0.7500 ca         1 ETL      -0.095500
     12 C07         13.0510    14.6090     1.5960 ca         1 ETL      -0.102000
     13 C08         15.5270    14.3980    -1.3120 c5         1 ETL      -0.074700
     14 C09         14.8260    13.4700    -2.3520 c5         1 ETL      -0.067900
     15 C10         15.8060    12.3280    -2.6140 c5         1 ETL      -0.081400
     16 C11         16.3840    12.0660    -1.2230 c5         1 ETL      -0.081400
     17 C12         16.6200    13.4740    -0.6630 c5         1 ETL      -0.067900
     18 C13         16.2280    15.5650    -2.0350 c          1 ETL       0.612100
     19 C16         17.2490    16.3990     0.1440 c5         1 ETL       0.111000
     20 C23         16.4300    19.9450    -4.6160 ca         1 ETL       0.456900
     21 C24         15.1750    20.5310    -4.3010 ca         1 ETL      -0.132000
     22 C25         14.6040    21.4360    -5.1680 ca         1 ETL      -0.070000
     23 C26         15.3190    21.7240    -6.3320 ca         1 ETL      -0.106200
     24 C29         16.9970    21.6100    -7.8180 cc         1 ETL       0.250200
     25 C30         16.5620    21.0960    -6.5640 ca         1 ETL       0.231700
     26 N22         17.0550    19.0100    -3.7800 ns         1 ETL      -0.313900
     27 N27         15.0980    22.5300    -7.4030 na         1 ETL      -0.065400
     28 N28         16.1080    22.4630    -8.3000 nd         1 ETL      -0.505100
     29 N31         17.1160    20.2140    -5.7150 nb         1 ETL      -0.673000
     30 O14         16.1160    15.7420    -3.2510 o          1 ETL      -0.610100
     31 H1          18.3080    17.9040     1.3170 hc         1 ETL       0.066700
     32 H2          19.4680    17.7760    -0.8290 hc         1 ETL       0.060200
     33 H3          18.5530    19.2740    -1.0090 hc         1 ETL       0.060200
     34 H4          18.3160    17.1340    -2.7630 h1         1 ETL       0.075700
     35 H5          12.3420    17.5550     0.0680 ha         1 ETL       0.132000
     36 H6          14.1280    16.7680    -1.4150 ha         1 ETL       0.131000
     37 H7          14.5220    13.2130     0.9560 ha         1 ETL       0.131000
     38 H8          12.7440    14.0100     2.4420 ha         1 ETL       0.132000
     39 H9          14.5400    14.0250    -3.2420 hc         1 ETL       0.056200
     40 H10         13.9200    13.0660    -1.8970 hc         1 ETL       0.056200
     41 H11         15.3220    11.4540    -3.0530 hc         1 ETL       0.048450
     42 H12         16.5970    12.6530    -3.2960 hc         1 ETL       0.048450
     43 H13         15.6470    11.5330    -0.6150 hc         1 ETL       0.048450
     44 H14         17.2990    11.4700    -1.2340 hc         1 ETL       0.048450
     45 H15         17.6080    13.8190    -0.9710 hc         1 ETL       0.056200
     46 H16         16.5990    13.5120     0.4240 hc         1 ETL       0.056200
     47 H17         16.3600    16.1170     0.7000 h1         1 ETL       0.054700
     48 H18         14.6850    20.2550    -3.3830 ha         1 ETL       0.160000
     49 H19         13.6490    21.8940    -4.9490 ha         1 ETL       0.128000
     50 H20         17.9000    21.3890    -8.3640 h4         1 ETL       0.060800
     51 H21         17.9310    18.6720    -4.1540 hn         1 ETL       0.168000
     52 H22         14.3080    23.1290    -7.5820 hn         1 ETL       0.380000
     53 H23         16.8250    18.4760     0.5370 hc         1 ETL       0.066700
     54 H24         18.0470    15.6910     0.3790 h1         1 ETL       0.054700
     55 CL01        11.1710    16.3980     2.4090 cl         1 ETL      -0.215000
@<TRIPOS>BOND
     1     1     4 1   
     2     1    18 1   
     3     1    19 1   
     4     2     3 1   
     5     2    19 1   
     6     2    31 1   
     7     2    53 1   
     8     3     4 1   
     9     3    32 1   
    10     3    33 1   
    11     4     5 1   
    12     4    34 1   
    13     5     6 2   
    14     5    26 1   
    15     7     8 ar  
    16     7    12 ar  
    17     7    55 1   
    18     8     9 ar  
    19     8    35 1   
    20     9    10 ar  
    21     9    36 1   
    22    10    11 ar  
    23    10    13 1   
    24    11    12 ar  
    25    11    37 1   
    26    12    38 1   
    27    13    14 1   
    28    13    17 1   
    29    13    18 1   
    30    14    15 1   
    31    14    39 1   
    32    14    40 1   
    33    15    16 1   
    34    15    41 1   
    35    15    42 1   
    36    16    17 1   
    37    16    43 1   
    38    16    44 1   
    39    17    45 1   
    40    17    46 1   
    41    18    30 2   
    42    19    47 1   
    43    19    54 1   
    44    20    21 ar  
    45    20    26 1   
    46    20    29 ar  
    47    21    22 ar  
    48    21    48 1   
    49    22    23 ar  
    50    22    49 1   
    51    23    25 ar  
    52    23    27 1   
    53    24    25 1   
    54    24    28 2   
    55    24    50 1   
    56    25    29 ar  
    57    26    51 1   
    58    27    28 1   
    59    27    52 1   
@<TRIPOS>SUBSTRUCTURE
     1 ETL         1 TEMP              0 ****  ****    0 ROOT
