@<TRIPOS>MOLECULE
ETL
   55    59     1     0     0
SMALL
No Charge or Current Charge


@<TRIPOS>ATOM
      1 N15         16.7880    16.3020    -1.5940 n          1 ETL      -0.405800
      2 C17         17.5600    17.9360    -0.0780 c5         1 ETL      -0.095400
      3 C18         18.3230    18.0910    -1.4150 c5         1 ETL      -0.081400
      4 C19         17.3550    17.4030    -2.4270 c5         1 ETL       0.033700
      5 C20         16.2920    18.4310    -2.9360 c          1 ETL       0.615100
      6 O21         15.1370    18.5530    -2.5430 o          1 ETL      -0.589100
      7 C02         12.5140    15.6590     1.6610 ca         1 ETL       0.123000
      8 C03         12.7270    16.3140     0.4410 ca         1 ETL      -0.102000
      9 C04         13.6810    15.8230    -0.4660 ca         1 ETL      -0.095500
     10 C05         14.4530    14.6760    -0.1640 ca         1 ETL      -0.078300
     11 C06         14.2040    14.0140     1.0640 ca         1 ETL      -0.095500
     12 C07         13.2480    14.5060     1.9700 ca         1 ETL      -0.102000
     13 C08         15.4940    14.1550    -1.1900 c5         1 ETL      -0.074700
     14 C09         14.7350    13.0090    -1.9640 c5         1 ETL      -0.067900
     15 C10         15.8480    11.9630    -2.2090 c5         1 ETL      -0.081400
     16 C11         16.4570    11.8940    -0.7910 c5         1 ETL      -0.081400
     17 C12         16.7050    13.4000    -0.4960 c5         1 ETL      -0.067900
     18 C13         16.0450    15.2460    -2.1950 c          1 ETL       0.612100
     19 C16         17.0990    16.4600    -0.1480 c5         1 ETL       0.111000
     20 C23         16.3320    20.2180    -4.7250 ca         1 ETL       0.456900
     21 C24         15.0450    20.8060    -4.5760 ca         1 ETL      -0.132000
     22 C25         14.6580    21.8520    -5.4440 ca         1 ETL      -0.070000
     23 C26         15.6060    22.2270    -6.4000 ca         1 ETL      -0.106200
     24 C29         17.5050    22.2690    -7.5650 cc         1 ETL       0.250200
     25 C30         16.8190    21.6120    -6.4720 ca         1 ETL       0.231700
     26 N22         16.8570    19.1800    -3.9450 ns         1 ETL      -0.313900
     27 N27         15.5670    23.1940    -7.3880 na         1 ETL      -0.065400
     28 N28         16.7560    23.2350    -8.1330 nd         1 ETL      -0.505100
     29 N31         17.2300    20.6080    -5.6630 nb         1 ETL      -0.673000
     30 O14         15.8660    15.2410    -3.4080 o          1 ETL      -0.610100
     31 H1          18.1890    18.1350     0.7970 hc         1 ETL       0.066700
     32 H2          19.2840    17.5640    -1.3770 hc         1 ETL       0.060200
     33 H3          18.5420    19.1360    -1.6620 hc         1 ETL       0.060200
     34 H4          17.9020    17.0100    -3.2950 h1         1 ETL       0.075700
     35 H5          12.1490    17.2020     0.1950 ha         1 ETL       0.132000
     36 H6          13.8120    16.3480    -1.4090 ha         1 ETL       0.131000
     37 H7          14.7390    13.1060     1.3270 ha         1 ETL       0.131000
     38 H8          13.0730    13.9890     2.9100 ha         1 ETL       0.132000
     39 H9          14.2570    13.3440    -2.8910 hc         1 ETL       0.056200
     40 H10         13.9340    12.5630    -1.3610 hc         1 ETL       0.056200
     41 H11         15.4490    10.9980    -2.5410 hc         1 ETL       0.048450
     42 H12         16.5760    12.2990    -2.9590 hc         1 ETL       0.048450
     43 H13         15.7640    11.4420    -0.0720 hc         1 ETL       0.048450
     44 H14         17.3830    11.3080    -0.7610 hc         1 ETL       0.048450
     45 H15         17.6580    13.6940    -0.9520 hc         1 ETL       0.056200
     46 H16         16.8150    13.6080     0.5740 hc         1 ETL       0.056200
     47 H17         16.2420    16.2900     0.5120 h1         1 ETL       0.054700
     48 H18         14.3560    20.4710    -3.8090 ha         1 ETL       0.160000
     49 H19         13.6850    22.3330    -5.3690 ha         1 ETL       0.128000
     50 H20         18.4930    22.1020    -7.9730 h4         1 ETL       0.060800
     51 H21         17.8140    18.9510    -4.1710 hn         1 ETL       0.168000
     52 H22         14.7890    23.8240    -7.5880 hn         1 ETL       0.380000
     53 H23         16.7010    18.6160    -0.0240 hc         1 ETL       0.066700
     54 H24         17.9130    15.7860     0.1520 h1         1 ETL       0.054700
     55 Cl01        11.3180    16.2730     2.7950 cl         1 ETL      -0.215000
@<TRIPOS>BOND
     1     1     4 1   
     2     1    18 1   
     3     1    19 1   
     4     2     3 1   
     5     2    19 1   
     6     2    31 1   
     7     2    53 1   
     8     3     4 1   
     9     3    32 1   
    10     3    33 1   
    11     4     5 1   
    12     4    34 1   
    13     5     6 2   
    14     5    26 1   
    15     7     8 ar  
    16     7    12 ar  
    17     7    55 1   
    18     8     9 ar  
    19     8    35 1   
    20     9    10 ar  
    21     9    36 1   
    22    10    11 ar  
    23    10    13 1   
    24    11    12 ar  
    25    11    37 1   
    26    12    38 1   
    27    13    14 1   
    28    13    17 1   
    29    13    18 1   
    30    14    15 1   
    31    14    39 1   
    32    14    40 1   
    33    15    16 1   
    34    15    41 1   
    35    15    42 1   
    36    16    17 1   
    37    16    43 1   
    38    16    44 1   
    39    17    45 1   
    40    17    46 1   
    41    18    30 2   
    42    19    47 1   
    43    19    54 1   
    44    20    21 ar  
    45    20    26 1   
    46    20    29 ar  
    47    21    22 ar  
    48    21    48 1   
    49    22    23 ar  
    50    22    49 1   
    51    23    25 ar  
    52    23    27 1   
    53    24    25 1   
    54    24    28 2   
    55    24    50 1   
    56    25    29 ar  
    57    26    51 1   
    58    27    28 1   
    59    27    52 1   
@<TRIPOS>SUBSTRUCTURE
     1 ETL         1 TEMP              0 ****  ****    0 ROOT
