@<TRIPOS>MOLECULE
ETM
   21    20     1     0     0
SMALL
abcg2


@<TRIPOS>ATOM
      1 SD           2.6900    -0.3740     0.1840 sh         1 ETM      -0.371800
      2 C1           1.1050     0.5190     0.0470 c3         1 ETM       0.026600
      3 C2           0.0170    -0.5380     0.0480 c3         1 ETM       0.111600
      4 N1          -1.3850     0.0080     0.0240 n4         1 ETM      -0.499000
      5 C3          -1.6090     0.8550    -1.1810 c3         1 ETM       0.074567
      6 C4          -1.6750     0.7990     1.2530 c3         1 ETM       0.074567
      7 C5          -2.3170    -1.1540    -0.0270 c3         1 ETM       0.074567
      8 HSD          3.4710     0.6450    -0.1860 hs         1 ETM       0.243800
      9 H11          1.1080     1.0860    -0.8810 h1         1 ETM       0.081700
     10 H12          1.0100     1.2070     0.8840 h1         1 ETM       0.081700
     11 H21          0.0830    -1.1620     0.9400 hx         1 ETM       0.107700
     12 H22          0.1140    -1.1820    -0.8250 hx         1 ETM       0.107700
     13 H31         -1.0000     1.7520    -1.1230 hx         1 ETM       0.098478
     14 H32         -1.3510     0.2860    -2.0700 hx         1 ETM       0.098478
     15 H33         -2.6570     1.1370    -1.2200 hx         1 ETM       0.098478
     16 H41         -2.7180     1.1030     1.2350 hx         1 ETM       0.098478
     17 H42         -1.4900     0.1800     2.1270 hx         1 ETM       0.098478
     18 H43         -1.0450     1.6830     1.2820 hx         1 ETM       0.098478
     19 H51         -2.1230    -1.7300    -0.9280 hx         1 ETM       0.098478
     20 H52         -2.1590    -1.7780     0.8490 hx         1 ETM       0.098478
     21 H53         -3.3390    -0.7860    -0.0370 hx         1 ETM       0.098478
@<TRIPOS>BOND
     1     1     2 1   
     2     1     8 1   
     3     2     3 1   
     4     2     9 1   
     5     2    10 1   
     6     3     4 1   
     7     3    11 1   
     8     3    12 1   
     9     4     5 1   
    10     4     6 1   
    11     4     7 1   
    12     5    13 1   
    13     5    14 1   
    14     5    15 1   
    15     6    16 1   
    16     6    17 1   
    17     6    18 1   
    18     7    19 1   
    19     7    20 1   
    20     7    21 1   
@<TRIPOS>SUBSTRUCTURE
     1 ETM         1 TEMP              0 ****  ****    0 ROOT
