@<TRIPOS>MOLECULE
ETM
   21    20     1     0     0
SMALL
No Charge or Current Charge


@<TRIPOS>ATOM
      1 SD           2.8530    -0.3340     0.0450 sh         1 ETM      -0.371800
      2 C1           1.1820     0.4650     0.0380 c3         1 ETM       0.026600
      3 C2           0.0250    -0.5560     0.0190 c3         1 ETM       0.111600
      4 N1          -1.4150    -0.0080     0.0120 n4         1 ETM      -0.499000
      5 C3          -1.6560     0.8540    -1.2390 c3         1 ETM       0.074567
      6 C4          -1.6770     0.8330     1.2720 c3         1 ETM       0.074567
      7 C5          -2.3950    -1.1900    -0.0060 c3         1 ETM       0.074567
      8 HSD          3.5760     0.8150     0.0610 hs         1 ETM       0.243800
      9 H11          1.1140     1.1120    -0.8460 h1         1 ETM       0.081700
     10 H12          1.0990     1.0960     0.9310 h1         1 ETM       0.081700
     11 H21          0.1270    -1.2010     0.8960 hx         1 ETM       0.107700
     12 H22          0.1410    -1.1860    -0.8660 hx         1 ETM       0.107700
     13 H31         -0.9870     1.7160    -1.2220 hx         1 ETM       0.098478
     14 H32         -1.4640     0.2560    -2.1320 hx         1 ETM       0.098478
     15 H33         -2.6930     1.1980    -1.2440 hx         1 ETM       0.098478
     16 H41         -2.7140     1.1770     1.2670 hx         1 ETM       0.098478
     17 H42         -1.5000     0.2200     2.1590 hx         1 ETM       0.098478
     18 H43         -1.0080     1.6950     1.2810 hx         1 ETM       0.098478
     19 H51         -2.2220    -1.7900    -0.9020 hx         1 ETM       0.098478
     20 H52         -2.2370    -1.8050     0.8830 hx         1 ETM       0.098478
     21 H53         -3.4190    -0.8110    -0.0120 hx         1 ETM       0.098478
@<TRIPOS>BOND
     1     1     2 1   
     2     1     8 1   
     3     2     3 1   
     4     2     9 1   
     5     2    10 1   
     6     3     4 1   
     7     3    11 1   
     8     3    12 1   
     9     4     5 1   
    10     4     6 1   
    11     4     7 1   
    12     5    13 1   
    13     5    14 1   
    14     5    15 1   
    15     6    16 1   
    16     6    17 1   
    17     6    18 1   
    18     7    19 1   
    19     7    20 1   
    20     7    21 1   
@<TRIPOS>SUBSTRUCTURE
     1 ETM         1 TEMP              0 ****  ****    0 ROOT
