@<TRIPOS>MOLECULE
ETN
   13    12     1     0     0
SMALL
abcg2


@<TRIPOS>ATOM
      1 N           -0.4520     0.0920    -0.5290 n7         1 ETN      -0.858400
      2 C            0.1300    -0.0210    -1.8500 c3         1 ETN       0.144100
      3 C1           0.5310    -0.0490     0.5280 c3         1 ETN       0.155800
      4 C2          -0.1150     0.0360     1.8990 c3         1 ETN      -0.092100
      5 HN          -1.1530    -0.6310    -0.4180 hn         1 ETN       0.404000
      6 H1          -0.6510     0.0340    -2.6090 h1         1 ETN       0.027700
      7 H2           0.8160     0.8110    -2.0250 h1         1 ETN       0.027700
      8 H3           0.6960    -0.9490    -2.0150 h1         1 ETN       0.027700
      9 H11          1.2630     0.7570     0.4190 h1         1 ETN       0.026700
     10 H12          1.1010    -0.9890     0.4490 h1         1 ETN       0.026700
     11 H21          0.6340    -0.0580     2.6850 hc         1 ETN       0.036700
     12 H22         -0.6290     0.9880     2.0310 hc         1 ETN       0.036700
     13 H23         -0.8440    -0.7640     2.0430 hc         1 ETN       0.036700
@<TRIPOS>BOND
     1     1     2 1   
     2     1     3 1   
     3     1     5 1   
     4     2     6 1   
     5     2     7 1   
     6     2     8 1   
     7     3     4 1   
     8     3     9 1   
     9     3    10 1   
    10     4    11 1   
    11     4    12 1   
    12     4    13 1   
@<TRIPOS>SUBSTRUCTURE
     1 ETN         1 TEMP              0 ****  ****    0 ROOT
