@<TRIPOS>MOLECULE
ETN
   13    12     1     0     0
SMALL
No Charge or Current Charge


@<TRIPOS>ATOM
      1 N           -0.4320     0.0620    -0.5290 n7         1 ETN      -0.858400
      2 C            0.1180    -0.0030    -1.8970 c3         1 ETN       0.144100
      3 C1           0.5660    -0.0450     0.5510 c3         1 ETN       0.155800
      4 C2          -0.1260     0.0460     1.9210 c3         1 ETN      -0.092100
      5 HN          -1.1040    -0.7090    -0.4180 hn         1 ETN       0.404000
      6 H1          -0.6850     0.0910    -2.6400 h1         1 ETN       0.027700
      7 H2           0.8380     0.8080    -2.0690 h1         1 ETN       0.027700
      8 H3           0.6300    -0.9600    -2.0690 h1         1 ETN       0.027700
      9 H11          1.3060     0.7630     0.4710 h1         1 ETN       0.026700
     10 H12          1.1030    -1.0010     0.4850 h1         1 ETN       0.026700
     11 H21          0.6160    -0.0290     2.7240 hc         1 ETN       0.036700
     12 H22         -0.6520     1.0020     2.0300 hc         1 ETN       0.036700
     13 H23         -0.8500    -0.7680     2.0490 hc         1 ETN       0.036700
@<TRIPOS>BOND
     1     1     2 1   
     2     1     3 1   
     3     1     5 1   
     4     2     6 1   
     5     2     7 1   
     6     2     8 1   
     7     3     4 1   
     8     3     9 1   
     9     3    10 1   
    10     4    11 1   
    11     4    12 1   
    12     4    13 1   
@<TRIPOS>SUBSTRUCTURE
     1 ETN         1 TEMP              0 ****  ****    0 ROOT
