@<TRIPOS>MOLECULE
ETO
   11    10     1     0     0
SMALL
abcg2


@<TRIPOS>ATOM
      1 CB           2.1320     0.3110    -0.1320 c3         1 ETO      -0.124100
      2 CA           1.1790    -0.7180     0.4300 c3         1 ETO       0.171600
      3 O2          -0.0860    -0.1240     0.7670 os         1 ETO      -0.452100
      4 C           -1.0240    -0.1180    -0.1610 c          1 ETO       0.599900
      5 O           -2.0890     0.4030     0.0180 o          1 ETO      -0.440000
      6 HB1          2.2760     1.1410     0.5610 hc         1 ETO       0.049700
      7 HB2          3.1020    -0.1540    -0.3050 hc         1 ETO       0.049700
      8 HB3          1.7780     0.7110    -1.0830 hc         1 ETO       0.049700
      9 HA1          1.0280    -1.5390    -0.2760 h1         1 ETO       0.053200
     10 HA2          1.5610    -1.1430     1.3560 h1         1 ETO       0.053200
     11 H           -0.7470    -0.6360    -1.0930 h5         1 ETO      -0.011800
@<TRIPOS>BOND
     1     1     2 1   
     2     1     6 1   
     3     1     7 1   
     4     1     8 1   
     5     2     3 1   
     6     2     9 1   
     7     2    10 1   
     8     3     4 1   
     9     4     5 2   
    10     4    11 1   
@<TRIPOS>SUBSTRUCTURE
     1 ETO         1 TEMP              0 ****  ****    0 ROOT
