@<TRIPOS>MOLECULE
ETO
   11    10     1     0     0
SMALL
No Charge or Current Charge


@<TRIPOS>ATOM
      1 CB           2.0440     0.2800    -0.1580 c3         1 ETO      -0.124100
      2 CA           1.1920    -0.8210     0.5060 c3         1 ETO       0.171600
      3 O2          -0.1000    -0.2810     0.8360 os         1 ETO      -0.452100
      4 C           -0.9650    -0.0190    -0.1940 c          1 ETO       0.599900
      5 O           -2.0760     0.4550    -0.0030 o          1 ETO      -0.440000
      6 HB1          2.1060     1.1630     0.4890 hc         1 ETO       0.049700
      7 HB2          3.0620    -0.0880    -0.3320 hc         1 ETO       0.049700
      8 HB3          1.6260     0.5820    -1.1260 hc         1 ETO       0.049700
      9 HA1          1.1020    -1.6880    -0.1640 h1         1 ETO       0.053200
     10 HA2          1.7010    -1.1560     1.4200 h1         1 ETO       0.053200
     11 H           -0.5810    -0.2930    -1.1940 h5         1 ETO      -0.011800
@<TRIPOS>BOND
     1     1     2 1   
     2     1     6 1   
     3     1     7 1   
     4     1     8 1   
     5     2     3 1   
     6     2     9 1   
     7     2    10 1   
     8     3     4 1   
     9     4     5 2   
    10     4    11 1   
@<TRIPOS>SUBSTRUCTURE
     1 ETO         1 TEMP              0 ****  ****    0 ROOT
