@<TRIPOS>MOLECULE
ETQ
   48    49     1     0     0
SMALL
No Charge or Current Charge


@<TRIPOS>ATOM
      1 C1           1.6030    -0.9860     0.9730 ca         1 ETQ       0.184100
      2 N1          -1.2960    -0.4230     1.2720 ns         1 ETQ      -0.485900
      3 O1           0.9570    -1.8960     1.7590 oh         1 ETQ      -0.531100
      4 Cl1          3.9290     1.9870    -1.6120 cl         1 ETQ      -0.185000
      5 C2           2.9160    -1.2880     0.5370 ca         1 ETQ      -0.174300
      6 N2          -3.9320    -0.4270    -0.7030 n3         1 ETQ      -0.759600
      7 O2           1.1510     2.3430    -0.6030 os         1 ETQ      -0.341100
      8 C3           3.6150    -0.3570    -0.2490 ca         1 ETQ      -0.041000
      9 O3          -0.7460     1.7630     1.3490 o          1 ETQ      -0.588100
     10 C4           3.0200     0.8580    -0.6040 ca         1 ETQ       0.047000
     11 C5           1.7120     1.1600    -0.1780 ca         1 ETQ       0.185100
     12 C6           0.2430     2.3260    -1.7170 c3         1 ETQ       0.144900
     13 C7           0.9840     0.2470     0.6280 ca         1 ETQ      -0.200600
     14 C8          -0.4090     0.6130     1.1000 c          1 ETQ       0.633700
     15 C9          -2.7190    -0.2760     1.5980 c3         1 ETQ       0.116000
     16 C10         -3.5930     0.3950     0.4940 c5         1 ETQ       0.168500
     17 C11         -5.0290     0.7100     0.9860 c5         1 ETQ      -0.093400
     18 C12         -5.7950     1.0190    -0.3340 c5         1 ETQ      -0.088400
     19 C13         -4.8740     0.4460    -1.4480 c5         1 ETQ       0.174800
     20 C15         -3.2080    -1.8010    -2.7120 c3         1 ETQ      -0.092100
     21 C16          3.6150    -2.6050     0.8910 c3         1 ETQ      -0.032100
     22 C17          3.1910    -3.7590    -0.0380 c3         1 ETQ      -0.093100
     23 HN1         -0.9160    -1.3530     1.1380 hn         1 ETQ       0.320500
     24 HO1          1.5650    -2.6460     1.9190 ho         1 ETQ       0.475000
     25 H3           4.6230    -0.5760    -0.5950 ha         1 ETQ       0.129000
     26 H6          -0.1120     3.3410    -1.9350 h1         1 ETQ       0.042700
     27 H6A          0.7380     1.9350    -2.6140 h1         1 ETQ       0.042700
     28 H6B         -0.6300     1.6970    -1.5020 h1         1 ETQ       0.042700
     29 H9          -3.1310    -1.2680     1.8240 h1         1 ETQ       0.054200
     30 H9A         -2.7930     0.3270     2.5130 h1         1 ETQ       0.054200
     31 H10         -3.0950     1.3280     0.1940 h1         1 ETQ       0.058700
     32 H11         -5.4690    -0.1540     1.4980 hc         1 ETQ       0.050700
     33 H11A        -5.0530     1.5500     1.6890 hc         1 ETQ       0.050700
     34 H12         -6.7810     0.5420    -0.3410 hc         1 ETQ       0.049700
     35 H12A        -5.9550     2.0940    -0.4750 hc         1 ETQ       0.049700
     36 H13         -4.3360     1.2570    -1.9590 h1         1 ETQ       0.034200
     37 H13A        -5.4490    -0.1060    -2.2050 h1         1 ETQ       0.034200
     38 H14         -2.1680    -0.1160    -1.8510 h1         1 ETQ       0.031200
     39 H14A        -2.1620    -1.5830    -0.8650 h1         1 ETQ       0.031200
     40 H15         -3.8560    -2.6280    -2.3990 hc         1 ETQ       0.034700
     41 H15A        -3.7400    -1.1990    -3.4570 hc         1 ETQ       0.034700
     42 H15B        -2.3190    -2.2260    -3.1940 hc         1 ETQ       0.034700
     43 H16          4.7030    -2.4870     0.8160 hc         1 ETQ       0.048700
     44 H16A         3.4280    -2.8860     1.9340 hc         1 ETQ       0.048700
     45 H17          2.1130    -3.9460     0.0300 hc         1 ETQ       0.038700
     46 H17A         3.4340    -3.5220    -1.0810 hc         1 ETQ       0.038700
     47 H17B         3.7170    -4.6820     0.2340 hc         1 ETQ       0.038700
     48 C14         -2.7930    -0.9470    -1.4980 c3         1 ETQ       0.181800
@<TRIPOS>BOND
     1     1     3 1   
     2     1     5 ar  
     3     1    13 ar  
     4     2    14 1   
     5     2    15 1   
     6     2    23 1   
     7     3    24 1   
     8     4    10 1   
     9     5     8 ar  
    10     5    21 1   
    11     6    16 1   
    12     6    19 1   
    13     6    48 1   
    14     7    11 1   
    15     7    12 1   
    16     8    10 ar  
    17     8    25 1   
    18     9    14 2   
    19    10    11 ar  
    20    11    13 ar  
    21    12    26 1   
    22    12    27 1   
    23    12    28 1   
    24    13    14 1   
    25    15    16 1   
    26    15    29 1   
    27    15    30 1   
    28    16    17 1   
    29    16    31 1   
    30    17    18 1   
    31    17    32 1   
    32    17    33 1   
    33    18    19 1   
    34    18    34 1   
    35    18    35 1   
    36    19    36 1   
    37    19    37 1   
    38    20    40 1   
    39    20    41 1   
    40    20    42 1   
    41    20    48 1   
    42    21    22 1   
    43    21    43 1   
    44    21    44 1   
    45    22    45 1   
    46    22    46 1   
    47    22    47 1   
    48    38    48 1   
    49    39    48 1   
@<TRIPOS>SUBSTRUCTURE
     1 ETQ         1 TEMP              0 ****  ****    0 ROOT
