@<TRIPOS>MOLECULE
ETQ
   48    49     1     0     0
SMALL
abcg2


@<TRIPOS>ATOM
      1 C1           1.6750    -1.1290     1.1220 ca         1 ETQ       0.184100
      2 N1          -1.3490    -0.3140     0.6980 ns         1 ETQ      -0.485900
      3 O1           0.9940    -1.7190     2.1230 oh         1 ETQ      -0.531100
      4 CL1          3.8010     1.1020    -2.1530 cl         1 ETQ      -0.185000
      5 C2           2.9570    -1.5350     0.7360 ca         1 ETQ      -0.174300
      6 N2          -3.7830     0.2090    -0.8560 n3         1 ETQ      -0.759600
      7 O2           1.0330     1.6380    -1.1570 os         1 ETQ      -0.341100
      8 C3           3.5800    -0.8350    -0.2870 ca         1 ETQ      -0.041000
      9 O3          -0.3190     1.4090     1.7380 o          1 ETQ      -0.588100
     10 C4           2.9540     0.2210    -0.9270 ca         1 ETQ       0.047000
     11 C5           1.6710     0.6080    -0.5560 ca         1 ETQ       0.185100
     12 C6           0.4790     1.3320    -2.4350 c3         1 ETQ       0.144900
     13 C7           1.0330    -0.0730     0.4750 ca         1 ETQ      -0.200600
     14 C8          -0.2800     0.4230     1.0180 c          1 ETQ       0.633700
     15 C9          -2.6510    -0.1340     1.3020 c3         1 ETQ       0.116000
     16 C10         -3.6080     0.7430     0.4980 c5         1 ETQ       0.168500
     17 C11         -5.0080     0.7310     1.1260 c5         1 ETQ      -0.093400
     18 C12         -5.7570    -0.3090     0.2980 c5         1 ETQ      -0.088400
     19 C13         -5.1920    -0.0640    -1.0900 c5         1 ETQ       0.174800
     20 C15         -2.9350     0.1300    -3.1680 c3         1 ETQ      -0.092100
     21 C16          3.6400    -2.7130     1.3760 c3         1 ETQ      -0.032100
     22 C17          3.1340    -4.0490     0.8330 c3         1 ETQ      -0.093100
     23 HN1         -1.2240    -1.0930     0.0720 hn         1 ETQ       0.320500
     24 HO1          1.5440    -2.3500     2.6000 ho         1 ETQ       0.475000
     25 H3           4.5810    -1.1200    -0.5860 ha         1 ETQ       0.129000
     26 H6          -0.1380     2.1810    -2.7230 h1         1 ETQ       0.042700
     27 H6A          1.2510     1.1870    -3.1920 h1         1 ETQ       0.042700
     28 H6B         -0.1430     0.4360    -2.3900 h1         1 ETQ       0.042700
     29 H9          -3.0910    -1.1260     1.4280 h1         1 ETQ       0.054200
     30 H9A         -2.5150     0.2870     2.3000 h1         1 ETQ       0.054200
     31 H10         -3.2060     1.7630     0.4690 h1         1 ETQ       0.058700
     32 H11         -4.9890     0.5050     2.1940 hc         1 ETQ       0.050700
     33 H11A        -5.4790     1.7090     1.0110 hc         1 ETQ       0.050700
     34 H12         -5.5200    -1.3210     0.6360 hc         1 ETQ       0.049700
     35 H12A        -6.8400    -0.1920     0.3390 hc         1 ETQ       0.049700
     36 H13         -5.7030     0.7970    -1.5540 h1         1 ETQ       0.034200
     37 H13A        -5.3290    -0.9150    -1.7620 h1         1 ETQ       0.034200
     38 H14         -3.6990     1.8740    -2.1600 h1         1 ETQ       0.031200
     39 H14A        -2.1640     1.2890    -1.5430 h1         1 ETQ       0.031200
     40 H15         -2.3590    -0.7690    -2.9450 hc         1 ETQ       0.034700
     41 H15A        -3.8840    -0.1800    -3.6080 hc         1 ETQ       0.034700
     42 H15B        -2.3960     0.7030    -3.9230 hc         1 ETQ       0.034700
     43 H16          4.7140    -2.6350     1.1960 hc         1 ETQ       0.048700
     44 H16A         3.5340    -2.6860     2.4660 hc         1 ETQ       0.048700
     45 H17          2.0640    -4.1770     1.0000 hc         1 ETQ       0.038700
     46 H17A         3.3100    -4.1210    -0.2400 hc         1 ETQ       0.038700
     47 H17B         3.6470    -4.8810     1.3160 hc         1 ETQ       0.038700
     48 C14         -3.1360     0.9580    -1.9090 c3         1 ETQ       0.181800
@<TRIPOS>BOND
     1     1     3 1   
     2     1     5 ar  
     3     1    13 ar  
     4     2    14 1   
     5     2    15 1   
     6     2    23 1   
     7     3    24 1   
     8     4    10 1   
     9     5     8 ar  
    10     5    21 1   
    11     6    16 1   
    12     6    19 1   
    13     6    48 1   
    14     7    11 1   
    15     7    12 1   
    16     8    10 ar  
    17     8    25 1   
    18     9    14 2   
    19    10    11 ar  
    20    11    13 ar  
    21    12    26 1   
    22    12    27 1   
    23    12    28 1   
    24    13    14 1   
    25    15    16 1   
    26    15    29 1   
    27    15    30 1   
    28    16    17 1   
    29    16    31 1   
    30    17    18 1   
    31    17    32 1   
    32    17    33 1   
    33    18    19 1   
    34    18    34 1   
    35    18    35 1   
    36    19    36 1   
    37    19    37 1   
    38    20    40 1   
    39    20    41 1   
    40    20    42 1   
    41    20    48 1   
    42    21    22 1   
    43    21    43 1   
    44    21    44 1   
    45    22    45 1   
    46    22    46 1   
    47    22    47 1   
    48    38    48 1   
    49    39    48 1   
@<TRIPOS>SUBSTRUCTURE
     1 ETQ         1 TEMP              0 ****  ****    0 ROOT
