@<TRIPOS>MOLECULE
ETR
   57    57     1     0     0
SMALL
No Charge or Current Charge


@<TRIPOS>ATOM
      1 C1          29.6160    21.5090    45.0260 c6         1 ETR       0.002200
      2 C2          29.3690    21.5350    43.4880 c6         1 ETR      -0.066400
      3 C3          30.5970    21.0510    42.6970 c6         1 ETR      -0.070400
      4 C4          30.8910    19.5760    43.0300 c6         1 ETR      -0.042200
      5 C5          30.8730    19.2610    44.5270 c2         1 ETR      -0.098400
      6 C6          30.2800    20.1110    45.4390 ce         1 ETR      -0.085200
      7 C7          30.3190    19.8700    46.8950 ce         1 ETR      -0.148000
      8 C8          31.4210    19.4750    47.5980 cf         1 ETR      -0.196000
      9 C9          31.5190    19.2460    49.0420 cf         1 ETR      -0.045200
     10 C10         32.7470    19.1220    49.6280 ce         1 ETR      -0.197000
     11 C11         33.0390    18.8910    51.0520 ce         1 ETR      -0.142000
     12 C12         34.2970    18.7070    51.5460 cf         1 ETR      -0.208000
     13 C13         34.6850    18.4680    52.9400 cf         1 ETR       0.020800
     14 C14         35.9230    17.9520    53.2080 ce         1 ETR      -0.309200
     15 C15         36.5300    17.6190    54.5310 c          1 ETR       0.610300
     16 O           35.9600    17.7320    55.6050 o          1 ETR      -0.614100
     17 N           37.8170    17.1430    54.4370 ns         1 ETR      -0.509900
     18 C16         28.2180    21.7840    45.7200 c3         1 ETR      -0.083100
     19 C17         30.5380    22.7340    45.4340 c3         1 ETR      -0.083100
     20 C18         31.5400    17.8910    44.8100 c3         1 ETR      -0.053900
     21 C19         30.2170    19.0860    49.8220 c3         1 ETR      -0.059900
     22 C20         33.6940    18.8790    54.0250 c3         1 ETR      -0.074900
     23 C21         38.6560    16.7620    55.5750 c3         1 ETR       0.105000
     24 C22         39.2660    17.9870    56.2800 c3         1 ETR      -0.116100
     25 H21         28.5130    20.8930    43.2370 hc         1 ETR       0.039700
     26 H22         29.0940    22.5480    43.1620 hc         1 ETR       0.039700
     27 H31         30.4140    21.1560    41.6190 hc         1 ETR       0.041200
     28 H32         31.4740    21.6710    42.9230 hc         1 ETR       0.041200
     29 H41         30.1500    18.9390    42.5280 hc         1 ETR       0.046200
     30 H42         31.8660    19.3060    42.6010 hc         1 ETR       0.046200
     31 H7          29.4000    20.0740    47.4410 ha         1 ETR       0.175000
     32 H8          32.3450    19.3470    47.0340 ha         1 ETR       0.175000
     33 H10         33.6230    19.2170    48.9840 ha         1 ETR       0.171000
     34 H11         32.1910    18.8620    51.7360 ha         1 ETR       0.176000
     35 H12         35.1150    18.7110    50.8230 ha         1 ETR       0.172000
     36 H14         36.5640    17.7290    52.3570 ha         1 ETR       0.168000
     37 HN          38.2100    17.0740    53.5060 hn         1 ETR       0.308500
     38 H161        28.3170    21.9450    46.8000 hc         1 ETR       0.034533
     39 H162        27.7360    22.6790    45.3090 hc         1 ETR       0.034533
     40 H163        27.5310    20.9420    45.5710 hc         1 ETR       0.034533
     41 H171        30.6530    22.7960    46.5230 hc         1 ETR       0.034533
     42 H172        31.5450    22.6400    45.0130 hc         1 ETR       0.034533
     43 H173        30.1210    23.6890    45.0920 hc         1 ETR       0.034533
     44 H181        31.2330    17.4750    45.7760 hc         1 ETR       0.042033
     45 H182        31.2660    17.1500    44.0490 hc         1 ETR       0.042033
     46 H183        32.6330    17.9780    44.8110 hc         1 ETR       0.042033
     47 H191        30.3210    18.3950    50.6650 hc         1 ETR       0.044367
     48 H192        29.8730    20.0490    50.2170 hc         1 ETR       0.044367
     49 H193        29.4150    18.6710    49.2020 hc         1 ETR       0.044367
     50 H201        34.1950    19.3670    54.8680 hc         1 ETR       0.058033
     51 H202        32.9580    19.6080    53.6700 hc         1 ETR       0.058033
     52 H203        33.1480    18.0110    54.4120 hc         1 ETR       0.058033
     53 H211        38.0540    16.1860    56.2910 h1         1 ETR       0.050200
     54 H212        39.4630    16.1120    55.2130 h1         1 ETR       0.050200
     55 H221        39.9010    17.6660    57.1140 hc         1 ETR       0.041033
     56 H222        39.8810    18.5670    55.5820 hc         1 ETR       0.041033
     57 H223        38.4810    18.6400    56.6780 hc         1 ETR       0.041033
@<TRIPOS>BOND
     1     1     2 1   
     2     1     6 1   
     3     1    18 1   
     4     1    19 1   
     5     2     3 1   
     6     2    25 1   
     7     2    26 1   
     8     3     4 1   
     9     3    27 1   
    10     3    28 1   
    11     4     5 1   
    12     4    29 1   
    13     4    30 1   
    14     5     6 2   
    15     5    20 1   
    16     6     7 1   
    17     7     8 2   
    18     7    31 1   
    19     8     9 1   
    20     8    32 1   
    21     9    10 2   
    22     9    21 1   
    23    10    11 1   
    24    10    33 1   
    25    11    12 2   
    26    11    34 1   
    27    12    13 1   
    28    12    35 1   
    29    13    14 2   
    30    13    22 1   
    31    14    15 1   
    32    14    36 1   
    33    15    16 2   
    34    15    17 1   
    35    17    23 1   
    36    17    37 1   
    37    18    38 1   
    38    18    39 1   
    39    18    40 1   
    40    19    41 1   
    41    19    42 1   
    42    19    43 1   
    43    20    44 1   
    44    20    45 1   
    45    20    46 1   
    46    21    47 1   
    47    21    48 1   
    48    21    49 1   
    49    22    50 1   
    50    22    51 1   
    51    22    52 1   
    52    23    24 1   
    53    23    53 1   
    54    23    54 1   
    55    24    55 1   
    56    24    56 1   
    57    24    57 1   
@<TRIPOS>SUBSTRUCTURE
     1 ETR         1 TEMP              0 ****  ****    0 ROOT
