@<TRIPOS>MOLECULE
ETR
   57    57     1     0     0
SMALL
bcc


@<TRIPOS>ATOM
      1 C1          29.8610    21.5830    45.0930 c6         1 ETR       0.002200
      2 C2          29.2240    21.6070    43.6730 c6         1 ETR      -0.066400
      3 C3          29.5390    20.4050    42.7920 c6         1 ETR      -0.070400
      4 C4          30.9320    19.8630    43.0790 c6         1 ETR      -0.042200
      5 C5          31.0150    19.4400    44.5210 c2         1 ETR      -0.098400
      6 C6          30.4590    20.2230    45.4620 ce         1 ETR      -0.085200
      7 C7          30.4770    19.8930    46.8920 ce         1 ETR      -0.098000
      8 C8          31.5770    19.6080    47.6070 cf         1 ETR      -0.146000
      9 C9          31.5980    19.2910    49.0260 cf         1 ETR      -0.045200
     10 C10         32.7960    19.0300    49.6030 ce         1 ETR      -0.147000
     11 C11         33.0390    18.7130    50.9850 ce         1 ETR      -0.092000
     12 C12         34.2690    18.4450    51.4670 cf         1 ETR      -0.158000
     13 C13         34.5760    18.1250    52.8520 cf         1 ETR       0.020800
     14 C14         35.8680    17.8580    53.1480 ce         1 ETR      -0.259200
     15 C15         36.4560    17.5040    54.4560 c          1 ETR       0.677300
     16 O           35.8250    17.3400    55.4980 o          1 ETR      -0.614100
     17 N           37.7960    17.3540    54.4110 ns         1 ETR      -0.576900
     18 C16         28.8000    22.0400    46.0990 c3         1 ETR      -0.083100
     19 C17         31.0200    22.5930    45.1510 c3         1 ETR      -0.083100
     20 C18         31.6630    18.1120    44.7660 c3         1 ETR      -0.053900
     21 C19         30.2940    19.2720    49.7650 c3         1 ETR      -0.059900
     22 C20         33.4420    18.1220    53.8320 c3         1 ETR      -0.074900
     23 C21         38.6010    17.0680    55.5780 c3         1 ETR       0.105000
     24 C22         38.9410    18.3060    56.3950 c3         1 ETR      -0.116100
     25 H21         28.1400    21.7010    43.7670 hc         1 ETR       0.039700
     26 H22         29.5580    22.5190    43.1700 hc         1 ETR       0.039700
     27 H31         28.8180    19.6040    42.9770 hc         1 ETR       0.041200
     28 H32         29.4370    20.6780    41.7390 hc         1 ETR       0.041200
     29 H41         31.1540    19.0160    42.4250 hc         1 ETR       0.046200
     30 H42         31.6860    20.6270    42.8530 hc         1 ETR       0.046200
     31 H7          29.5200    19.9260    47.4050 ha         1 ETR       0.125000
     32 H8          32.5420    19.6240    47.1080 ha         1 ETR       0.125000
     33 H10         33.6750    19.0620    48.9640 ha         1 ETR       0.121000
     34 H11         32.1940    18.6970    51.6620 ha         1 ETR       0.126000
     35 H12         35.1100    18.4590    50.7780 ha         1 ETR       0.122000
     36 H14         36.5760    17.9110    52.3270 ha         1 ETR       0.118000
     37 HN          38.2800    17.5530    53.5520 hn         1 ETR       0.308500
     38 H161        29.2110    22.1920    47.0990 hc         1 ETR       0.034533
     39 H162        28.3770    22.9930    45.7760 hc         1 ETR       0.034533
     40 H163        27.9770    21.3260    46.1750 hc         1 ETR       0.034533
     41 H171        31.4890    22.5980    46.1360 hc         1 ETR       0.034533
     42 H172        31.7930    22.3640    44.4140 hc         1 ETR       0.034533
     43 H173        30.6580    23.6040    44.9460 hc         1 ETR       0.034533
     44 H181        31.5320    17.7450    45.7810 hc         1 ETR       0.042033
     45 H182        31.2590    17.3660    44.0770 hc         1 ETR       0.042033
     46 H183        32.7380    18.1600    44.5680 hc         1 ETR       0.042033
     47 H191        30.4050    19.0310    50.8190 hc         1 ETR       0.044367
     48 H192        29.7960    20.2410    49.7000 hc         1 ETR       0.044367
     49 H193        29.6140    18.5380    49.3300 hc         1 ETR       0.044367
     50 H201        33.7700    17.9190    54.8430 hc         1 ETR       0.058033
     51 H202        32.9300    19.0860    53.8190 hc         1 ETR       0.058033
     52 H203        32.7010    17.3690    53.5540 hc         1 ETR       0.058033
     53 H211        38.0780    16.3410    56.2000 h1         1 ETR       0.050200
     54 H212        39.5150    16.5860    55.2310 h1         1 ETR       0.050200
     55 H221        39.5660    18.0360    57.2470 hc         1 ETR       0.041033
     56 H222        39.4880    19.0350    55.7950 hc         1 ETR       0.041033
     57 H223        38.0400    18.7850    56.7770 hc         1 ETR       0.041033
@<TRIPOS>BOND
     1     1     2 1   
     2     1     6 1   
     3     1    18 1   
     4     1    19 1   
     5     2     3 1   
     6     2    25 1   
     7     2    26 1   
     8     3     4 1   
     9     3    27 1   
    10     3    28 1   
    11     4     5 1   
    12     4    29 1   
    13     4    30 1   
    14     5     6 2   
    15     5    20 1   
    16     6     7 1   
    17     7     8 2   
    18     7    31 1   
    19     8     9 1   
    20     8    32 1   
    21     9    10 2   
    22     9    21 1   
    23    10    11 1   
    24    10    33 1   
    25    11    12 2   
    26    11    34 1   
    27    12    13 1   
    28    12    35 1   
    29    13    14 2   
    30    13    22 1   
    31    14    15 1   
    32    14    36 1   
    33    15    16 2   
    34    15    17 1   
    35    17    23 1   
    36    17    37 1   
    37    18    38 1   
    38    18    39 1   
    39    18    40 1   
    40    19    41 1   
    41    19    42 1   
    42    19    43 1   
    43    20    44 1   
    44    20    45 1   
    45    20    46 1   
    46    21    47 1   
    47    21    48 1   
    48    21    49 1   
    49    22    50 1   
    50    22    51 1   
    51    22    52 1   
    52    23    24 1   
    53    23    53 1   
    54    23    54 1   
    55    24    55 1   
    56    24    56 1   
    57    24    57 1   
@<TRIPOS>SUBSTRUCTURE
     1 ETR         1 TEMP              0 ****  ****    0 ROOT
