@<TRIPOS>MOLECULE
ETS
   35    36     1     0     0
SMALL
No Charge or Current Charge


@<TRIPOS>ATOM
      1 S1          -1.0510     1.6360    -0.4560 ss         1 ETS       0.507000
      2 C2          -1.8540     0.1420    -0.0400 cc         1 ETS      -0.417500
      3 C3          -0.9620    -0.8740     0.2160 cd         1 ETS      -0.021000
      4 C4           0.4000    -0.4690     0.0960 cd         1 ETS      -0.008300
      5 C5           1.5850    -1.4040     0.3620 c6         1 ETS       0.232800
      6 C6           2.9580    -0.7760    -0.0460 c6         1 ETS      -0.066400
      7 C7           3.1730     0.6900     0.4410 c6         1 ETS      -0.257700
      8 S8           1.9840     1.8030    -0.3920 sy         1 ETS       1.075500
      9 C9           0.5000     0.8630    -0.2430 cc         1 ETS      -0.393500
     10 S10         -3.6070     0.0620    -0.0240 sy         1 ETS       1.176600
     11 O11         -4.1730     1.2150    -0.7210 o          1 ETS      -0.538000
     12 O12         -4.0300    -1.3160    -0.2550 o          1 ETS      -0.538000
     13 N13         -3.8920     0.3050     1.5600 n8         1 ETS      -1.021100
     14 N14          1.3790    -2.6940    -0.3380 n7         1 ETS      -0.851400
     15 C15          3.1200     0.8250     1.9950 c3         1 ETS      -0.073100
     16 O16          2.3200     1.8550    -1.8200 o          1 ETS      -0.511500
     17 O17          1.8190     3.0360     0.3880 o          1 ETS      -0.511500
     18 C18          2.2710    -3.8140     0.0130 c3         1 ETS       0.153800
     19 C19          1.8590    -5.0700    -0.7710 c3         1 ETS      -0.097100
     20 H3          -1.2660    -1.8810     0.4870 ha         1 ETS       0.147000
     21 H5           1.6080    -1.6030     1.4440 h1         1 ETS       0.036700
     22 H61          3.7730    -1.4000     0.3440 hc         1 ETS       0.074200
     23 H62          3.0560    -0.8120    -1.1400 hc         1 ETS       0.074200
     24 H7           4.1520     1.0480     0.0990 h1         1 ETS       0.105700
     25 HN31        -4.5060    -0.4810     1.7600 hn         1 ETS       0.482000
     26 HN32        -3.0030     0.0310     1.9690 hn         1 ETS       0.482000
     27 HN4          0.4190    -3.0010    -0.1540 hn         1 ETS       0.415000
     28 H151         3.8300     0.1410     2.4740 hc         1 ETS       0.052367
     29 H152         3.3820     1.8400     2.3170 hc         1 ETS       0.052367
     30 H153         2.1220     0.6010     2.3930 hc         1 ETS       0.052367
     31 H181         3.3150    -3.5760    -0.2290 h1         1 ETS       0.031200
     32 H182         2.2130    -4.0300     1.0890 h1         1 ETS       0.031200
     33 H191         0.8300    -5.3630    -0.5280 hc         1 ETS       0.042367
     34 H192         1.9260    -4.8940    -1.8510 hc         1 ETS       0.042367
     35 H193         2.5210    -5.9070    -0.5190 hc         1 ETS       0.042367
@<TRIPOS>BOND
     1     1     2 1   
     2     1     9 1   
     3     2     3 2   
     4     2    10 1   
     5     3     4 1   
     6     3    20 1   
     7     4     5 1   
     8     4     9 2   
     9     5     6 1   
    10     5    14 1   
    11     5    21 1   
    12     6     7 1   
    13     6    22 1   
    14     6    23 1   
    15     7     8 1   
    16     7    15 1   
    17     7    24 1   
    18     8     9 1   
    19     8    16 2   
    20     8    17 2   
    21    10    11 2   
    22    10    12 2   
    23    10    13 1   
    24    13    25 1   
    25    13    26 1   
    26    14    18 1   
    27    14    27 1   
    28    15    28 1   
    29    15    29 1   
    30    15    30 1   
    31    18    19 1   
    32    18    31 1   
    33    18    32 1   
    34    19    33 1   
    35    19    34 1   
    36    19    35 1   
@<TRIPOS>SUBSTRUCTURE
     1 ETS         1 TEMP              0 ****  ****    0 ROOT
