@<TRIPOS>MOLECULE
ETS
   35    36     1     0     0
SMALL
abcg2


@<TRIPOS>ATOM
      1 S1          -1.0350     1.5230    -0.3040 ss         1 ETS       0.507000
      2 C2          -1.8020     0.0340     0.0450 cc         1 ETS      -0.417500
      3 C3          -0.9340    -0.9930     0.2510 cd         1 ETS      -0.021000
      4 C4           0.4210    -0.5830     0.1080 cd         1 ETS      -0.008300
      5 C5           1.6070    -1.4850     0.3360 c6         1 ETS       0.232800
      6 C6           2.9360    -0.8110    -0.0190 c6         1 ETS      -0.066400
      7 C7           3.1050     0.6160     0.4980 c6         1 ETS      -0.257700
      8 S8           1.9690     1.6670    -0.4170 sy         1 ETS       1.075500
      9 C9           0.4860     0.7490    -0.1880 cc         1 ETS      -0.393500
     10 S10         -3.5560    -0.0480     0.1220 sy         1 ETS       1.176600
     11 O11         -4.0820     0.8740    -0.8680 o          1 ETS      -0.538000
     12 O12         -3.9080    -1.4550     0.0690 o          1 ETS      -0.538000
     13 N13         -3.8480     0.6360     1.5870 n8         1 ETS      -1.021100
     14 N14          1.4490    -2.6960    -0.4580 n7         1 ETS      -0.851400
     15 C15          2.9290     0.7830     1.9980 c3         1 ETS      -0.073100
     16 O16          2.3320     1.6540    -1.8300 o          1 ETS      -0.511500
     17 O17          1.7800     2.9600     0.2310 o          1 ETS      -0.511500
     18 C18          2.4230    -3.7330    -0.1410 c3         1 ETS       0.153800
     19 C19          2.0540    -5.0340    -0.8290 c3         1 ETS      -0.097100
     20 H3          -1.2480    -1.9940     0.5080 ha         1 ETS       0.147000
     21 H5           1.6150    -1.7140     1.4160 h1         1 ETS       0.036700
     22 H61          3.7580    -1.3910     0.4040 hc         1 ETS       0.074200
     23 H62          3.0670    -0.8380    -1.1030 hc         1 ETS       0.074200
     24 H7           4.0900     0.9860     0.1970 h1         1 ETS       0.105700
     25 HN31        -4.7610     1.0790     1.6240 hn         1 ETS       0.482000
     26 HN32        -3.7200    -0.0020     2.3650 hn         1 ETS       0.482000
     27 HN4          0.5290    -3.0830    -0.2830 hn         1 ETS       0.415000
     28 H151         3.6290     0.1190     2.5040 hc         1 ETS       0.052367
     29 H152         3.1530     1.8000     2.3120 hc         1 ETS       0.052367
     30 H153         1.9260     0.5330     2.3430 hc         1 ETS       0.052367
     31 H181         3.4080    -3.4160    -0.4870 h1         1 ETS       0.031200
     32 H182         2.5110    -3.8980     0.9440 h1         1 ETS       0.031200
     33 H191         1.0890    -5.4080    -0.4830 hc         1 ETS       0.042367
     34 H192         1.9980    -4.9030    -1.9100 hc         1 ETS       0.042367
     35 H193         2.7990    -5.8010    -0.6190 hc         1 ETS       0.042367
@<TRIPOS>BOND
     1     1     2 1   
     2     1     9 1   
     3     2     3 2   
     4     2    10 1   
     5     3     4 1   
     6     3    20 1   
     7     4     5 1   
     8     4     9 2   
     9     5     6 1   
    10     5    14 1   
    11     5    21 1   
    12     6     7 1   
    13     6    22 1   
    14     6    23 1   
    15     7     8 1   
    16     7    15 1   
    17     7    24 1   
    18     8     9 1   
    19     8    16 2   
    20     8    17 2   
    21    10    11 2   
    22    10    12 2   
    23    10    13 1   
    24    13    25 1   
    25    13    26 1   
    26    14    18 1   
    27    14    27 1   
    28    15    28 1   
    29    15    29 1   
    30    15    30 1   
    31    18    19 1   
    32    18    31 1   
    33    18    32 1   
    34    19    33 1   
    35    19    34 1   
    36    19    35 1   
@<TRIPOS>SUBSTRUCTURE
     1 ETS         1 TEMP              0 ****  ****    0 ROOT
