@<TRIPOS>MOLECULE
ETU
   64    68     1     0     0
SMALL
bcc


@<TRIPOS>ATOM
      1 C           -7.1690    -1.6140     2.2070 c3         1 ETU      -0.081100
      2 N           -8.3490    -1.4360    -1.0910 n          1 ETU      -0.468800
      3 O           -9.5000    -2.2380     0.6670 o          1 ETU      -0.647500
      4 CL           7.5930    -2.8190    -1.3730 cl         1 ETU      -0.015300
      5 C1          -7.8060    -0.6620     1.1960 c6         1 ETU       0.112500
      6 N1          -6.7870     0.1610     0.5680 n3         1 ETU      -0.733600
      7 O1          -4.2180     1.4560     0.2420 os         1 ETU      -0.321900
      8 C2          -8.6270    -1.5020     0.2190 c          1 ETU       0.705500
      9 N2           4.1470     0.9630    -0.2460 nh         1 ETU      -0.767300
     10 C3          -7.4470    -0.4520    -1.6590 c6         1 ETU       0.110000
     11 N3           9.2170    -0.3230     0.9740 nc         1 ETU      -0.066000
     12 C4          -7.2310     0.6900    -0.7010 c6         1 ETU       0.160800
     13 N4           9.2390    -1.4490     0.2400 nc         1 ETU      -0.349700
     14 C5          -6.2450     1.1800     1.4550 c3         1 ETU       0.177800
     15 N5           7.2720    -0.5480    -0.0090 na         1 ETU       0.103300
     16 C6          -4.7350     1.1480     1.5240 c3         1 ETU       0.142400
     17 N6           6.0230    -0.3260    -0.4290 nc         1 ETU      -0.559800
     18 C7          -2.8850     1.4220     0.0490 ca         1 ETU       0.151100
     19 C8          -2.4380     1.6910    -1.2450 ca         1 ETU      -0.191000
     20 C9          -1.0840     1.6820    -1.5300 ca         1 ETU      -0.084500
     21 C10         -0.1320     1.4070    -0.5490 ca         1 ETU      -0.121300
     22 C11         -0.5950     1.1400     0.7340 ca         1 ETU      -0.084500
     23 C12         -1.9500     1.1450     1.0440 ca         1 ETU      -0.191000
     24 C13          1.3390     1.3880    -0.8790 c6         1 ETU      -0.006400
     25 C14          2.1460     2.3750    -0.0370 c6         1 ETU      -0.081400
     26 C15          3.6230     2.3170    -0.3900 c6         1 ETU       0.213300
     27 C16          3.4320    -0.0250    -1.0430 c6         1 ETU       0.213300
     28 C17          1.9470    -0.0050    -0.7170 c6         1 ETU      -0.081400
     29 C18          5.4490     0.7400     0.0700 cd         1 ETU       0.648200
     30 C19          6.1410     1.6330     0.9810 cd         1 ETU      -0.252300
     31 C20          7.4130     1.3830     1.3490 cd         1 ETU      -0.024000
     32 C21          8.0300     0.2210     0.8220 cd         1 ETU      -0.111300
     33 C22          8.0790    -1.5770    -0.3410 cd         1 ETU       0.383800
     34 C23         -9.0470    -2.2990    -2.0200 c3         1 ETU       0.088300
     35 H           -6.5850    -1.0640     2.9440 hc         1 ETU       0.046700
     36 HA          -7.9250    -2.1820     2.7450 hc         1 ETU       0.046700
     37 HB          -6.4970    -2.3100     1.7030 hc         1 ETU       0.046700
     38 H1          -8.5490    -0.0360     1.7210 h1         1 ETU       0.046700
     39 H3          -6.4920    -0.9170    -1.9200 h1         1 ETU       0.050200
     40 H3A         -7.8900    -0.0730    -2.5830 h1         1 ETU       0.050200
     41 H4          -8.1560     1.2850    -0.6140 h1         1 ETU       0.047700
     42 H4A         -6.4670     1.3470    -1.1130 h1         1 ETU       0.047700
     43 H5          -6.5850     2.1810     1.1630 h1         1 ETU       0.047200
     44 H5A         -6.6080     1.0350     2.4750 h1         1 ETU       0.047200
     45 H6          -4.4040     0.1540     1.8450 h1         1 ETU       0.040700
     46 H6A         -4.3870     1.8760     2.2660 h1         1 ETU       0.040700
     47 H8          -3.1590     1.9070    -2.0240 ha         1 ETU       0.139000
     48 H9          -0.7600     1.8970    -2.5420 ha         1 ETU       0.129500
     49 H11          0.1100     0.9220     1.5300 ha         1 ETU       0.129500
     50 H12         -2.2530     0.9320     2.0600 ha         1 ETU       0.139000
     51 H13          1.4500     1.6810    -1.9300 hc         1 ETU       0.050700
     52 H14          1.7920     3.3950    -0.2000 hc         1 ETU       0.055950
     53 H14A         2.0230     2.1540     1.0270 hc         1 ETU       0.055950
     54 H15          4.1700     3.0120     0.2410 h1         1 ETU       0.051450
     55 H15A         3.7690     2.6500    -1.4250 h1         1 ETU       0.051450
     56 H16          3.5890     0.1690    -2.1130 h1         1 ETU       0.051450
     57 H16A         3.8370    -1.0120    -0.8350 h1         1 ETU       0.051450
     58 H17          1.8020    -0.3530     0.3110 hc         1 ETU       0.055950
     59 H17A         1.4400    -0.7200    -1.3690 hc         1 ETU       0.055950
     60 H19          5.6260     2.4830     1.3990 ha         1 ETU       0.154000
     61 H20          7.9510     2.0180     2.0380 ha         1 ETU       0.170000
     62 H23         -9.2570    -3.2660    -1.5710 h1         1 ETU       0.043033
     63 H23A        -9.9890    -1.8560    -2.3500 h1         1 ETU       0.043033
     64 H23B        -8.4200    -2.4580    -2.8950 h1         1 ETU       0.043033
@<TRIPOS>BOND
     1     1     5 1   
     2     1    35 1   
     3     1    36 1   
     4     1    37 1   
     5     2     8 1   
     6     2    10 1   
     7     2    34 1   
     8     3     8 2   
     9     4    33 1   
    10     5     6 1   
    11     5     8 1   
    12     5    38 1   
    13     6    12 1   
    14     6    14 1   
    15     7    16 1   
    16     7    18 1   
    17     9    26 1   
    18     9    27 1   
    19     9    29 1   
    20    10    12 1   
    21    10    39 1   
    22    10    40 1   
    23    11    13 1   
    24    11    32 2   
    25    12    41 1   
    26    12    42 1   
    27    13    33 2   
    28    14    16 1   
    29    14    43 1   
    30    14    44 1   
    31    15    17 1   
    32    15    32 1   
    33    15    33 1   
    34    16    45 1   
    35    16    46 1   
    36    17    29 2   
    37    18    19 ar  
    38    18    23 ar  
    39    19    20 ar  
    40    19    47 1   
    41    20    21 ar  
    42    20    48 1   
    43    21    22 ar  
    44    21    24 1   
    45    22    23 ar  
    46    22    49 1   
    47    23    50 1   
    48    24    25 1   
    49    24    28 1   
    50    24    51 1   
    51    25    26 1   
    52    25    52 1   
    53    25    53 1   
    54    26    54 1   
    55    26    55 1   
    56    27    28 1   
    57    27    56 1   
    58    27    57 1   
    59    28    58 1   
    60    28    59 1   
    61    29    30 1   
    62    30    31 2   
    63    30    60 1   
    64    31    32 1   
    65    31    61 1   
    66    34    62 1   
    67    34    63 1   
    68    34    64 1   
@<TRIPOS>SUBSTRUCTURE
     1 ETU         1 TEMP              0 ****  ****    0 ROOT
