@<TRIPOS>MOLECULE
ETU
   64    68     1     0     0
SMALL
No Charge or Current Charge


@<TRIPOS>ATOM
      1 C           -9.0100    -0.1350     2.3780 c3         1 ETU      -0.081100
      2 N           -8.6310    -1.7280    -1.0880 n          1 ETU      -0.401800
      3 O          -10.4300    -1.4640     0.3040 o          1 ETU      -0.572000
      4 Cl           8.6000    -1.3900    -2.7860 cl         1 ETU      -0.015300
      5 C1          -8.4460    -0.1410     0.9200 c6         1 ETU       0.112500
      6 N1          -6.9410    -0.2930     0.8600 n3         1 ETU      -0.733600
      7 O1          -4.1110     1.2810     0.4440 os         1 ETU      -0.345100
      8 C2          -9.2670    -1.1670     0.0420 c          1 ETU       0.563000
      9 N2           4.3560     1.0620    -0.3530 nh         1 ETU      -0.767300
     10 C3          -7.1700    -1.5940    -1.3040 c6         1 ETU       0.110000
     11 N3           9.5570    -0.0660     0.7230 nc         1 ETU      -0.066000
     12 C4          -6.5190    -0.3940    -0.5690 c6         1 ETU       0.160800
     13 N4           9.8450    -0.7060    -0.4710 nc         1 ETU      -0.349700
     14 C5          -6.1960     0.7730     1.6140 c3         1 ETU       0.177800
     15 N5           7.7040    -0.0670    -0.5260 na         1 ETU       0.154000
     16 C6          -4.6460     0.6650     1.6340 c3         1 ETU       0.165600
     17 N6           6.3970     0.1470    -0.9390 nc         1 ETU      -0.559800
     18 C7          -2.7580     1.3200     0.1810 ca         1 ETU       0.151100
     19 C8          -2.3400     1.9240    -1.0140 ca         1 ETU      -0.173000
     20 C9          -0.9740     1.9940    -1.3390 ca         1 ETU      -0.066500
     21 C10         -0.0070     1.4560    -0.4660 ca         1 ETU      -0.121300
     22 C11         -0.4290     0.8480     0.7350 ca         1 ETU      -0.066500
     23 C12         -1.7950     0.7790     1.0590 ca         1 ETU      -0.173000
     24 C13          1.4830     1.5360    -0.8300 c6         1 ETU      -0.006400
     25 C14          2.2940     2.3580     0.2060 c6         1 ETU      -0.081400
     26 C15          3.7890     2.4300    -0.1850 c6         1 ETU       0.213300
     27 C16          3.6240     0.2270    -1.3510 c6         1 ETU       0.213300
     28 C17          2.1220     0.1310    -0.9890 c6         1 ETU      -0.081400
     29 C18          5.6870     0.7990    -0.0070 cd         1 ETU       0.582900
     30 C19          6.1780     1.2360     1.2810 cd         1 ETU      -0.169000
     31 C20          7.5350     0.9810     1.6410 cd         1 ETU      -0.006000
     32 C21          8.2900     0.2970     0.6560 cd         1 ETU      -0.162000
     33 C22          8.7330    -0.6970    -1.1990 cd         1 ETU       0.383800
     34 C23         -9.3740    -2.6500    -1.9740 c3         1 ETU       0.088300
     35 H           -8.6180     0.6970     2.9720 hc         1 ETU       0.046700
     36 HA         -10.1000    -0.0200     2.3890 hc         1 ETU       0.046700
     37 HB          -8.7670    -1.0690     2.8980 hc         1 ETU       0.046700
     38 H1          -8.7040     0.8360     0.4840 h1         1 ETU       0.046700
     39 H3          -6.6880    -2.5180    -0.9550 h1         1 ETU       0.050200
     40 H3A         -6.9620    -1.5050    -2.3800 h1         1 ETU       0.050200
     41 H4          -6.7780     0.5310    -1.1050 h1         1 ETU       0.047700
     42 H4A         -5.4310    -0.5210    -0.6540 h1         1 ETU       0.047700
     43 H5          -6.4700     1.7670     1.2370 h1         1 ETU       0.047200
     44 H5A         -6.4970     0.7440     2.6680 h1         1 ETU       0.047200
     45 H6          -4.3530    -0.3910     1.7050 h1         1 ETU       0.040700
     46 H6A         -4.2710     1.1880     2.5220 h1         1 ETU       0.040700
     47 H8          -3.0790     2.3420    -1.6920 ha         1 ETU       0.121000
     48 H9          -0.6710     2.4670    -2.2700 ha         1 ETU       0.111500
     49 H11          0.3010     0.4260     1.4220 ha         1 ETU       0.111500
     50 H12         -2.0850     0.3040     1.9920 ha         1 ETU       0.121000
     51 H13          1.5750     2.0480    -1.7990 hc         1 ETU       0.050700
     52 H14          1.8850     3.3740     0.2810 hc         1 ETU       0.055950
     53 H14A         2.2060     1.9100     1.2050 hc         1 ETU       0.055950
     54 H15          4.3320     3.0050     0.5780 h1         1 ETU       0.051450
     55 H15A         3.8860     2.9880    -1.1280 h1         1 ETU       0.051450
     56 H16          3.7320     0.6610    -2.3560 h1         1 ETU       0.051450
     57 H16A         4.0340    -0.7940    -1.3900 h1         1 ETU       0.051450
     58 H17          2.0160    -0.4420    -0.0580 hc         1 ETU       0.055950
     59 H17A         1.5930    -0.4350    -1.7660 hc         1 ETU       0.055950
     60 H19          5.5210     1.7400     1.9770 ha         1 ETU       0.136000
     61 H20          7.9540     1.2850     2.5960 ha         1 ETU       0.152000
     62 H23         -9.6730    -3.5440    -1.4110 h1         1 ETU       0.043033
     63 H23A       -10.2710    -2.1510    -2.3610 h1         1 ETU       0.043033
     64 H23B        -8.7470    -2.9570    -2.8210 h1         1 ETU       0.043033
@<TRIPOS>BOND
     1     1     5 1   
     2     1    35 1   
     3     1    36 1   
     4     1    37 1   
     5     2     8 1   
     6     2    10 1   
     7     2    34 1   
     8     3     8 2   
     9     4    33 1   
    10     5     6 1   
    11     5     8 1   
    12     5    38 1   
    13     6    12 1   
    14     6    14 1   
    15     7    16 1   
    16     7    18 1   
    17     9    26 1   
    18     9    27 1   
    19     9    29 1   
    20    10    12 1   
    21    10    39 1   
    22    10    40 1   
    23    11    13 1   
    24    11    32 2   
    25    12    41 1   
    26    12    42 1   
    27    13    33 2   
    28    14    16 1   
    29    14    43 1   
    30    14    44 1   
    31    15    17 1   
    32    15    32 1   
    33    15    33 1   
    34    16    45 1   
    35    16    46 1   
    36    17    29 2   
    37    18    19 ar  
    38    18    23 ar  
    39    19    20 ar  
    40    19    47 1   
    41    20    21 ar  
    42    20    48 1   
    43    21    22 ar  
    44    21    24 1   
    45    22    23 ar  
    46    22    49 1   
    47    23    50 1   
    48    24    25 1   
    49    24    28 1   
    50    24    51 1   
    51    25    26 1   
    52    25    52 1   
    53    25    53 1   
    54    26    54 1   
    55    26    55 1   
    56    27    28 1   
    57    27    56 1   
    58    27    57 1   
    59    28    58 1   
    60    28    59 1   
    61    29    30 1   
    62    30    31 2   
    63    30    60 1   
    64    31    32 1   
    65    31    61 1   
    66    34    62 1   
    67    34    63 1   
    68    34    64 1   
@<TRIPOS>SUBSTRUCTURE
     1 ETU         1 TEMP              0 ****  ****    0 ROOT
