@<TRIPOS>MOLECULE
ETV
   26    27     1     0     0
SMALL
No Charge or Current Charge


@<TRIPOS>ATOM
      1 O4           3.5480    -2.0670    -1.1150 o          1 ETV      -0.537000
      2 C9           3.5380    -1.2420    -0.2170 c          1 ETV       0.725400
      3 N5           4.6740    -0.5230     0.0490 nc         1 ETV      -0.765100
      4 C10          4.6770     0.3750     0.9860 cd         1 ETV       0.776500
      5 N6           5.8490     0.9880     1.1330 nv         1 ETV      -1.024200
      6 C11          3.5420     0.6860     1.8100 cd         1 ETV      -0.145100
      7 F2           3.6190     1.6270     2.7750 f          1 ETV      -0.162500
      8 C12          2.3900    -0.0230     1.5680 cc         1 ETV      -0.013400
      9 N4           2.3870    -0.9940     0.5600 n          1 ETV      -0.317000
     10 C13          1.1390    -1.7300     0.2350 c5         1 ETV       0.331700
     11 O5           0.5400    -2.2590     1.4330 os         1 ETV      -0.455000
     12 C15         -0.7650    -2.7650     1.0920 c5         1 ETV       0.291300
     13 C16         -1.5930    -3.0390     2.3840 c3         1 ETV       0.145600
     14 O6          -1.9910    -1.8100     3.0350 oh         1 ETV      -0.717000
     15 S2          -1.5600    -1.4410     0.0480 ss         1 ETV      -0.453000
     16 C14          0.1110    -0.7240    -0.3640 c5         1 ETV       0.009600
     17 HN61         6.6240     0.4860     0.7220 hn         1 ETV       0.510500
     18 HN62         6.0180     1.4060     2.0390 hn         1 ETV       0.510500
     19 H12          1.4520     0.0760     2.1080 h4         1 ETV       0.242000
     20 H13          1.3590    -2.5430    -0.4710 h2         1 ETV       0.122700
     21 H15         -0.6650    -3.6890     0.5060 h2         1 ETV       0.095700
     22 H161        -0.9990    -3.6680     3.0610 h1         1 ETV       0.064200
     23 H162        -2.4820    -3.6170     2.0970 h1         1 ETV       0.064200
     24 HO6         -2.1040    -1.1550     2.3050 ho         1 ETV       0.512000
     25 H141         0.1960     0.2740     0.0820 h1         1 ETV       0.094200
     26 H142         0.2360    -0.6200    -1.4500 h1         1 ETV       0.094200
@<TRIPOS>BOND
     1     1     2 2   
     2     2     3 1   
     3     2     9 1   
     4     3     4 2   
     5     4     5 1   
     6     4     6 1   
     7     5    17 1   
     8     5    18 1   
     9     6     7 1   
    10     6     8 2   
    11     8     9 1   
    12     8    19 1   
    13     9    10 1   
    14    10    11 1   
    15    10    16 1   
    16    10    20 1   
    17    11    12 1   
    18    12    13 1   
    19    12    15 1   
    20    12    21 1   
    21    13    14 1   
    22    13    22 1   
    23    13    23 1   
    24    14    24 1   
    25    15    16 1   
    26    16    25 1   
    27    16    26 1   
@<TRIPOS>SUBSTRUCTURE
     1 ETV         1 TEMP              0 ****  ****    0 ROOT
