@<TRIPOS>MOLECULE
ETV
   26    27     1     0     0
SMALL
bcc


@<TRIPOS>ATOM
      1 O4           3.5230    -1.7770    -1.4550 o          1 ETV      -0.612500
      2 C9           3.4830    -1.1420    -0.4120 c          1 ETV       0.867900
      3 N5           4.5420    -0.4430     0.0520 nc         1 ETV      -0.765100
      4 C10          4.4890     0.2510     1.1660 cd         1 ETV       0.776500
      5 N6           5.5570     0.9260     1.5730 nv         1 ETV      -0.913800
      6 C11          3.2850     0.2820     1.9370 cd         1 ETV      -0.145100
      7 F2           3.2510     0.9920     3.0740 f          1 ETV      -0.162500
      8 C12          2.2250    -0.4110     1.5080 cc         1 ETV       0.036600
      9 N4           2.3010    -1.1180     0.3460 n          1 ETV      -0.384000
     10 C13          1.1330    -1.8590    -0.0890 c5         1 ETV       0.308500
     11 O5           0.7430    -2.7020     0.9670 os         1 ETV      -0.408600
     12 C15         -0.6400    -2.9150     1.1010 c5         1 ETV       0.220200
     13 C16         -1.1200    -2.4570     2.4670 c3         1 ETV       0.122400
     14 O6          -0.9960    -1.0730     2.6680 oh         1 ETV      -0.594800
     15 S2          -1.4740    -2.0080    -0.2610 ss         1 ETV      -0.357200
     16 C14         -0.0320    -0.9430    -0.4510 c5         1 ETV      -0.038300
     17 HN61         6.4090     0.8760     1.0410 hn         1 ETV       0.455300
     18 HN62         5.5700     1.4490     2.4320 hn         1 ETV       0.455300
     19 H12          1.2950    -0.4370     2.0620 h4         1 ETV       0.192000
     20 H13          1.4320    -2.4430    -0.9590 h2         1 ETV       0.122700
     21 H15         -0.8690    -3.9770     0.9770 h2         1 ETV       0.095700
     22 H161        -0.5160    -2.9530     3.2320 h1         1 ETV       0.064200
     23 H162        -2.1510    -2.8020     2.5980 h1         1 ETV       0.064200
     24 HO6         -1.6570    -0.6310     2.1240 ho         1 ETV       0.413000
     25 H141        -0.0890    -0.0690     0.1990 h1         1 ETV       0.094200
     26 H142         0.0480    -0.6080    -1.4830 h1         1 ETV       0.094200
@<TRIPOS>BOND
     1     1     2 2   
     2     2     3 1   
     3     2     9 1   
     4     3     4 2   
     5     4     5 1   
     6     4     6 1   
     7     5    17 1   
     8     5    18 1   
     9     6     7 1   
    10     6     8 2   
    11     8     9 1   
    12     8    19 1   
    13     9    10 1   
    14    10    11 1   
    15    10    16 1   
    16    10    20 1   
    17    11    12 1   
    18    12    13 1   
    19    12    15 1   
    20    12    21 1   
    21    13    14 1   
    22    13    22 1   
    23    13    23 1   
    24    14    24 1   
    25    15    16 1   
    26    16    25 1   
    27    16    26 1   
@<TRIPOS>SUBSTRUCTURE
     1 ETV         1 TEMP              0 ****  ****    0 ROOT
