@<TRIPOS>MOLECULE
ETW
   56    60     1     0     0
SMALL
bcc


@<TRIPOS>ATOM
      1 C07         -8.6760    -1.5390    -2.7900 c3         1 ETW      -0.043800
      2 C08         -7.8220    -0.8010    -1.7990 ca         1 ETW      -0.079300
      3 C09         -6.7920    -1.4560    -1.1220 ca         1 ETW      -0.133000
      4 C10         -6.0090    -0.7910    -0.1930 ca         1 ETW      -0.113500
      5 C11         -6.2290     0.5560     0.0900 ca         1 ETW      -0.106300
      6 C12         -7.2490     1.2130    -0.5850 ca         1 ETW      -0.113500
      7 C13         -8.0360     0.5430    -1.5150 ca         1 ETW      -0.133000
      8 C14         -5.3900     1.2800     1.1110 c3         1 ETW       0.144300
      9 N15         -3.9770     1.1200     0.8520 ns         1 ETW      -0.579900
     10 C16         -3.0790     0.7160     1.7670 c          1 ETW       0.685700
     11 O17         -3.3560     0.5050     2.9400 o          1 ETW      -0.604100
     12 C18         -1.6850     0.5280     1.2600 ca         1 ETW      -0.172600
     13 C19         -1.4150     0.1120    -0.0410 ca         1 ETW      -0.133000
     14 C20         -0.1060    -0.0900    -0.4450 ca         1 ETW      -0.148000
     15 C21          0.9480     0.1270     0.4370 ca         1 ETW      -0.046000
     16 C22          2.3160    -0.1440    -0.0650 cc         1 ETW       0.217000
     17 C23          2.8890    -1.4400     0.1310 ca         1 ETW      -0.205300
     18 C24          2.3000    -2.4460     0.9130 ca         1 ETW      -0.002000
     19 C25          2.8980    -3.6690     1.0780 ca         1 ETW      -0.204000
     20 C26          4.1300    -3.9310     0.4550 ca         1 ETW       0.183100
     21 O27          4.6710    -5.1370     0.6500 oh         1 ETW      -0.494100
     22 C28          4.7390    -2.9590    -0.3270 ca         1 ETW      -0.342300
     23 C29          4.1130    -1.7310    -0.4770 ca         1 ETW       0.425000
     24 O30          4.7440    -0.8240    -1.2420 os         1 ETW      -0.389800
     25 C31          4.2180     0.3970    -1.4750 cd         1 ETW       0.366700
     26 C32          4.9210     1.2420    -2.2750 cc         1 ETW      -0.350200
     27 C33          4.4300     2.5640    -2.5710 c          1 ETW       0.591500
     28 O34          5.0450     3.3570    -3.2940 o          1 ETW      -0.608100
     29 C35          3.1500     2.9200    -1.9620 cc         1 ETW      -0.276200
     30 C36          2.4690     2.0630    -1.1740 cd         1 ETW      -0.012200
     31 C37          2.9610     0.7490    -0.8870 cd         1 ETW      -0.252100
     32 C38          0.6900     0.5440     1.7420 ca         1 ETW      -0.125600
     33 C39         -0.6270     0.7270     2.1390 ca         1 ETW      -0.050000
     34 C40          1.8350     0.7980     2.7110 c          1 ETW       0.919200
     35 O41          1.5350     1.1710     3.8580 o          1 ETW      -0.796300
     36 O42          2.9740     0.6010     2.2480 o          1 ETW      -0.796300
     37 H1          -8.0710    -2.1500    -3.4600 hc         1 ETW       0.038700
     38 H2          -9.3720    -2.2110    -2.2840 hc         1 ETW       0.038700
     39 H3          -9.2660    -0.8550    -3.3980 hc         1 ETW       0.038700
     40 H4          -6.5980    -2.5020    -1.3280 ha         1 ETW       0.125000
     41 H5          -5.2150    -1.3280     0.3130 ha         1 ETW       0.135500
     42 H6          -7.4330     2.2630    -0.3880 ha         1 ETW       0.135500
     43 H7          -8.8220     1.0820    -2.0300 ha         1 ETW       0.125000
     44 H8          -5.6540     2.3410     1.1220 h1         1 ETW       0.060200
     45 H9          -5.5920     0.8960     2.1110 h1         1 ETW       0.060200
     46 H10         -3.6520     1.3950    -0.0610 hn         1 ETW       0.317500
     47 H11         -2.2130    -0.0880    -0.7440 ha         1 ETW       0.115000
     48 H12          0.0950    -0.4270    -1.4540 ha         1 ETW       0.124000
     49 H13          1.3520    -2.2520     1.3970 ha         1 ETW       0.156000
     50 H14          2.4330    -4.4330     1.6870 ha         1 ETW       0.146000
     51 H15          5.5080    -5.2210     0.1780 ho         1 ETW       0.425000
     52 H16          5.6890    -3.1450    -0.8140 ha         1 ETW       0.144000
     53 H17          5.8660     0.9270    -2.7000 ha         1 ETW       0.145000
     54 H19          2.7570     3.9100    -2.1600 ha         1 ETW       0.134000
     55 H20          1.5260     2.3630    -0.7350 ha         1 ETW       0.138000
     56 H21         -0.8230     1.0420     3.1560 ha         1 ETW       0.177000
@<TRIPOS>BOND
     1     1     2 1   
     2     1    37 1   
     3     1    38 1   
     4     1    39 1   
     5     2     3 ar  
     6     2     7 ar  
     7     3     4 ar  
     8     3    40 1   
     9     4     5 ar  
    10     4    41 1   
    11     5     6 ar  
    12     5     8 1   
    13     6     7 ar  
    14     6    42 1   
    15     7    43 1   
    16     8     9 1   
    17     8    44 1   
    18     8    45 1   
    19     9    10 1   
    20     9    46 1   
    21    10    11 2   
    22    10    12 1   
    23    12    13 ar  
    24    12    33 ar  
    25    13    14 ar  
    26    13    47 1   
    27    14    15 ar  
    28    14    48 1   
    29    15    16 1   
    30    15    32 ar  
    31    16    17 1   
    32    16    31 2   
    33    17    18 ar  
    34    17    23 ar  
    35    18    19 ar  
    36    18    49 1   
    37    19    20 ar  
    38    19    50 1   
    39    20    21 1   
    40    20    22 ar  
    41    21    51 1   
    42    22    23 ar  
    43    22    52 1   
    44    23    24 1   
    45    24    25 1   
    46    25    26 2   
    47    25    31 1   
    48    26    27 1   
    49    26    53 1   
    50    27    28 2   
    51    27    29 1   
    52    29    30 2   
    53    29    54 1   
    54    30    31 1   
    55    30    55 1   
    56    32    33 ar  
    57    32    34 1   
    58    33    56 1   
    59    34    35 1   
    60    34    36 1   
@<TRIPOS>SUBSTRUCTURE
     1 ETW         1 TEMP              0 ****  ****    0 ROOT
