@<TRIPOS>MOLECULE
ETW
   56    60     1     0     0
SMALL
No Charge or Current Charge


@<TRIPOS>ATOM
      1 C07         -8.9450    -0.7810    -3.1270 c3         1 ETW      -0.043800
      2 C08         -8.0510    -0.4200    -1.9510 ca         1 ETW      -0.079300
      3 C09         -7.6700    -1.4040    -1.0200 ca         1 ETW      -0.115000
      4 C10         -6.8400    -1.0710     0.0650 ca         1 ETW      -0.095500
      5 C11         -6.3830     0.2500     0.2310 ca         1 ETW      -0.106300
      6 C12         -6.7600     1.2340    -0.7030 ca         1 ETW      -0.095500
      7 C13         -7.5900     0.9000    -1.7880 ca         1 ETW      -0.115000
      8 C14         -5.4810     0.6090     1.4010 c3         1 ETW       0.144300
      9 N15         -4.0750     0.4420     1.0460 ns         1 ETW      -0.512900
     10 C16         -3.0230     0.6900     1.8950 c          1 ETW       0.618700
     11 O17         -3.2110     1.0810     3.0390 o          1 ETW      -0.604100
     12 C18         -1.6330     0.4560     1.3360 ca         1 ETW      -0.172600
     13 C19         -1.4170     0.0050     0.0140 ca         1 ETW      -0.115000
     14 C20         -0.1140    -0.2020    -0.4610 ca         1 ETW      -0.130000
     15 C21          1.0030     0.0440     0.3580 ca         1 ETW      -0.046000
     16 C22          2.3450    -0.2260    -0.1720 cc         1 ETW       0.217000
     17 C23          3.1030    -1.4300     0.1830 ca         1 ETW      -0.140000
     18 C24          2.5750    -2.3950     1.0680 ca         1 ETW       0.016000
     19 C25          3.3230    -3.5410     1.3910 ca         1 ETW      -0.186000
     20 C26          4.5940    -3.7330     0.8350 ca         1 ETW       0.183100
     21 O27          5.3100    -4.8450     1.1540 oh         1 ETW      -0.533100
     22 C28          5.1230    -2.7850    -0.0470 ca         1 ETW      -0.259000
     23 C29          4.3780    -1.6420    -0.3690 ca         1 ETW       0.250000
     24 O30          4.9080    -0.7330    -1.2420 os         1 ETW      -0.301000
     25 C31          4.2220     0.3880    -1.5960 cd         1 ETW       0.257000
     26 C32          4.8140     1.2490    -2.4780 cc         1 ETW      -0.400200
     27 C33          4.1600     2.4750    -2.9160 c          1 ETW       0.591500
     28 O34          4.6850     3.2410    -3.7090 o          1 ETW      -0.608100
     29 C35          2.8350     2.7300    -2.3390 cc         1 ETW      -0.326200
     30 C36          2.2090     1.8820    -1.4470 cd         1 ETW      -0.062200
     31 C37          2.9140     0.6770    -1.0690 cd         1 ETW      -0.186800
     32 C38          0.8050     0.4950     1.6860 ca         1 ETW      -0.125600
     33 C39         -0.5100     0.6920     2.1600 ca         1 ETW      -0.032000
     34 C40          1.9630     0.7600     2.6210 c          1 ETW       0.708600
     35 O41          1.8760     0.3440     3.7670 o          1 ETW      -0.691000
     36 O42          2.9040     1.4270     2.2160 o          1 ETW      -0.691000
     37 H1          -8.3460    -1.0910    -3.9920 hc         1 ETW       0.038700
     38 H2          -9.6230    -1.6050    -2.8760 hc         1 ETW       0.038700
     39 H3          -9.5630     0.0710    -3.4360 hc         1 ETW       0.038700
     40 H4          -8.0140    -2.4290    -1.1370 ha         1 ETW       0.107000
     41 H5          -6.5510    -1.8420     0.7770 ha         1 ETW       0.117500
     42 H6          -6.4090     2.2570    -0.5900 ha         1 ETW       0.117500
     43 H7          -7.8720     1.6690    -2.5030 ha         1 ETW       0.107000
     44 H8          -5.6540     1.6520     1.7000 h1         1 ETW       0.060200
     45 H9          -5.7120    -0.0330     2.2620 h1         1 ETW       0.060200
     46 H10         -3.8490     0.1220     0.1140 hn         1 ETW       0.317500
     47 H11         -2.2470    -0.1960    -0.6590 ha         1 ETW       0.097000
     48 H12          0.0330    -0.5600    -1.4780 ha         1 ETW       0.106000
     49 H13          1.5890    -2.2680     1.5080 ha         1 ETW       0.138000
     50 H14          2.9130    -4.2800     2.0740 ha         1 ETW       0.128000
     51 H15          6.1640    -4.8070     0.6750 ho         1 ETW       0.464000
     52 H16          6.1060    -2.9240    -0.4890 ha         1 ETW       0.126000
     53 H17          5.7940     1.0570    -2.8920 ha         1 ETW       0.195000
     54 H19          2.3630     3.6490    -2.6660 ha         1 ETW       0.184000
     55 H20          1.2270     2.1390    -1.0550 ha         1 ETW       0.188000
     56 H21         -0.6530     1.0370     3.1830 ha         1 ETW       0.159000
@<TRIPOS>BOND
     1     1     2 1   
     2     1    37 1   
     3     1    38 1   
     4     1    39 1   
     5     2     3 ar  
     6     2     7 ar  
     7     3     4 ar  
     8     3    40 1   
     9     4     5 ar  
    10     4    41 1   
    11     5     6 ar  
    12     5     8 1   
    13     6     7 ar  
    14     6    42 1   
    15     7    43 1   
    16     8     9 1   
    17     8    44 1   
    18     8    45 1   
    19     9    10 1   
    20     9    46 1   
    21    10    11 2   
    22    10    12 1   
    23    12    13 ar  
    24    12    33 ar  
    25    13    14 ar  
    26    13    47 1   
    27    14    15 ar  
    28    14    48 1   
    29    15    16 1   
    30    15    32 ar  
    31    16    17 1   
    32    16    31 2   
    33    17    18 ar  
    34    17    23 ar  
    35    18    19 ar  
    36    18    49 1   
    37    19    20 ar  
    38    19    50 1   
    39    20    21 1   
    40    20    22 ar  
    41    21    51 1   
    42    22    23 ar  
    43    22    52 1   
    44    23    24 1   
    45    24    25 1   
    46    25    26 2   
    47    25    31 1   
    48    26    27 1   
    49    26    53 1   
    50    27    28 2   
    51    27    29 1   
    52    29    30 2   
    53    29    54 1   
    54    30    31 1   
    55    30    55 1   
    56    32    33 ar  
    57    32    34 1   
    58    33    56 1   
    59    34    35 1   
    60    34    36 1   
@<TRIPOS>SUBSTRUCTURE
     1 ETW         1 TEMP              0 ****  ****    0 ROOT
