@<TRIPOS>MOLECULE
ETX
   16    15     1     0     0
SMALL
abcg2


@<TRIPOS>ATOM
      1 C2           0.8460     0.2000    -0.5740 c3         1 ETX       0.161600
      2 O2          -0.0250    -0.1570     0.4690 os         1 ETX      -0.448000
      3 C3           0.4030     0.3150     1.7250 c3         1 ETX       0.161600
      4 C4          -0.5820    -0.1220     2.7860 c3         1 ETX      -0.091100
      5 O1          -0.8840     0.3140    -2.2100 oh         1 ETX      -0.708000
      6 C1           0.3270    -0.3320    -1.8850 c3         1 ETX       0.163600
      7 H21          0.9620     1.2920    -0.6350 h1         1 ETX       0.026200
      8 H22          1.8510    -0.2150    -0.4090 h1         1 ETX       0.026200
      9 H31          0.4840     1.4110     1.7160 h1         1 ETX       0.016700
     10 H32          1.4050    -0.0710     1.9600 h1         1 ETX       0.016700
     11 H41         -0.2640     0.2500     3.7590 hc         1 ETX       0.042700
     12 H42         -1.5800     0.2710     2.5880 hc         1 ETX       0.042700
     13 H43         -0.6450    -1.2090     2.8470 hc         1 ETX       0.042700
     14 HO1         -1.1780    -0.0150    -3.0630 ho         1 ETX       0.499000
     15 H11          1.1020    -0.1520    -2.6410 h1         1 ETX       0.023700
     16 H12          0.2010    -1.4200    -1.8130 h1         1 ETX       0.023700
@<TRIPOS>BOND
     1     1     2 1   
     2     1     6 1   
     3     1     7 1   
     4     1     8 1   
     5     2     3 1   
     6     3     4 1   
     7     3     9 1   
     8     3    10 1   
     9     4    11 1   
    10     4    12 1   
    11     4    13 1   
    12     5     6 1   
    13     5    14 1   
    14     6    15 1   
    15     6    16 1   
@<TRIPOS>SUBSTRUCTURE
     1 ETX         1 TEMP              0 ****  ****    0 ROOT
