@<TRIPOS>MOLECULE
ETX
   16    15     1     0     0
SMALL
No Charge or Current Charge


@<TRIPOS>ATOM
      1 C2           0.8930     0.2310    -0.5910 c3         1 ETX       0.161600
      2 O2           0.0130    -0.1300     0.4940 os         1 ETX      -0.448000
      3 C3           0.4400     0.3360     1.7830 c3         1 ETX       0.161600
      4 C4          -0.5990    -0.1300     2.8160 c3         1 ETX      -0.091100
      5 O1          -0.9010     0.3380    -2.2990 oh         1 ETX      -0.708000
      6 C1           0.3220    -0.3260    -1.9230 c3         1 ETX       0.163600
      7 H21          0.9990     1.3220    -0.6650 h1         1 ETX       0.026200
      8 H22          1.8920    -0.1960    -0.4280 h1         1 ETX       0.026200
      9 H31          0.5050     1.4320     1.7990 h1         1 ETX       0.016700
     10 H32          1.4240    -0.0770     2.0410 h1         1 ETX       0.016700
     11 H41         -0.3120     0.2050     3.8190 hc         1 ETX       0.042700
     12 H42         -1.5870     0.2830     2.5850 hc         1 ETX       0.042700
     13 H43         -0.6690    -1.2240     2.8270 hc         1 ETX       0.042700
     14 HO1         -1.2300    -0.1100    -3.1130 ho         1 ETX       0.499000
     15 H11          1.0780    -0.1880    -2.7080 h1         1 ETX       0.023700
     16 H12          0.1550    -1.4060    -1.8160 h1         1 ETX       0.023700
@<TRIPOS>BOND
     1     1     2 1   
     2     1     6 1   
     3     1     7 1   
     4     1     8 1   
     5     2     3 1   
     6     3     4 1   
     7     3     9 1   
     8     3    10 1   
     9     4    11 1   
    10     4    12 1   
    11     4    13 1   
    12     5     6 1   
    13     5    14 1   
    14     6    15 1   
    15     6    16 1   
@<TRIPOS>SUBSTRUCTURE
     1 ETX         1 TEMP              0 ****  ****    0 ROOT
