@<TRIPOS>MOLECULE
ETY
   19    19     1     0     0
SMALL
bcc


@<TRIPOS>ATOM
      1 C8          -3.2080     0.0980     0.8580 c3         1 ETY      -0.087100
      2 C7          -2.4980    -0.0650    -0.4850 c3         1 ETY      -0.025100
      3 CG          -1.0000    -0.0060    -0.3540 ca         1 ETY      -0.114300
      4 C3          -0.2200    -1.1560    -0.3810 ca         1 ETY      -0.087500
      5 C2           1.1590    -1.1050    -0.2210 ca         1 ETY      -0.191500
      6 C5          -0.3480     1.2120    -0.1610 ca         1 ETY      -0.087500
      7 C6           1.0260     1.2840     0.0020 ca         1 ETY      -0.191500
      8 C1           1.7910     0.1190    -0.0260 ca         1 ETY       0.134100
      9 O1           3.1270     0.2360     0.1350 oh         1 ETY      -0.496100
     10 H81         -2.9690     1.0590     1.3160 hc         1 ETY       0.034367
     11 H82         -4.2910     0.0460     0.7380 hc         1 ETY       0.034367
     12 H83         -2.9100    -0.6850     1.5560 hc         1 ETY       0.034367
     13 H71         -2.7880    -1.0180    -0.9340 hc         1 ETY       0.043200
     14 H72         -2.8410     0.7140    -1.1710 hc         1 ETY       0.043200
     15 H3          -0.6920    -2.1200    -0.5350 ha         1 ETY       0.129500
     16 H2           1.7390    -2.0210    -0.2490 ha         1 ETY       0.137000
     17 H5          -0.9260     2.1290    -0.1380 ha         1 ETY       0.129500
     18 H6           1.5100     2.2420     0.1490 ha         1 ETY       0.137000
     19 HO1          3.5440    -0.6310     0.0970 ho         1 ETY       0.424000
@<TRIPOS>BOND
     1     1     2 1   
     2     1    10 1   
     3     1    11 1   
     4     1    12 1   
     5     2     3 1   
     6     2    13 1   
     7     2    14 1   
     8     3     4 ar  
     9     3     6 ar  
    10     4     5 ar  
    11     4    15 1   
    12     5     8 ar  
    13     5    16 1   
    14     6     7 ar  
    15     6    17 1   
    16     7     8 ar  
    17     7    18 1   
    18     8     9 1   
    19     9    19 1   
@<TRIPOS>SUBSTRUCTURE
     1 ETY         1 TEMP              0 ****  ****    0 ROOT
