@<TRIPOS>MOLECULE
ETY
   19    19     1     0     0
SMALL
No Charge or Current Charge


@<TRIPOS>ATOM
      1 C8          -3.2260    -0.0360     0.8670 c3         1 ETY      -0.087100
      2 C7          -2.5050     0.0150    -0.4930 c3         1 ETY      -0.025100
      3 CG          -0.9900     0.0600    -0.3380 ca         1 ETY      -0.114300
      4 C3          -0.2460    -1.1350    -0.2830 ca         1 ETY      -0.069500
      5 C2           1.1520    -1.0940    -0.1360 ca         1 ETY      -0.173500
      6 C5          -0.3230     1.2960    -0.2400 ca         1 ETY      -0.069500
      7 C6           1.0750     1.3350    -0.0940 ca         1 ETY      -0.173500
      8 C1           1.8110     0.1430    -0.0420 ca         1 ETY       0.134100
      9 O1           3.1650     0.1910     0.1010 oh         1 ETY      -0.535100
     10 H81         -2.9830     0.8500     1.4660 hc         1 ETY       0.034367
     11 H82         -4.3130    -0.0670     0.7230 hc         1 ETY       0.034367
     12 H83         -2.9270    -0.9280     1.4300 hc         1 ETY       0.034367
     13 H71         -2.8000    -0.8600    -1.0850 hc         1 ETY       0.043200
     14 H72         -2.8560     0.8930    -1.0490 hc         1 ETY       0.043200
     15 H3          -0.7510    -2.0970    -0.3540 ha         1 ETY       0.111500
     16 H2           1.7140    -2.0240    -0.0960 ha         1 ETY       0.119000
     17 H5          -0.8860     2.2260    -0.2770 ha         1 ETY       0.111500
     18 H6           1.5860     2.2920    -0.0190 ha         1 ETY       0.119000
     19 HO1          3.5080    -0.7280     0.1170 ho         1 ETY       0.463000
@<TRIPOS>BOND
     1     1     2 1   
     2     1    10 1   
     3     1    11 1   
     4     1    12 1   
     5     2     3 1   
     6     2    13 1   
     7     2    14 1   
     8     3     4 ar  
     9     3     6 ar  
    10     4     5 ar  
    11     4    15 1   
    12     5     8 ar  
    13     5    16 1   
    14     6     7 ar  
    15     6    17 1   
    16     7     8 ar  
    17     7    18 1   
    18     8     9 1   
    19     9    19 1   
@<TRIPOS>SUBSTRUCTURE
     1 ETY         1 TEMP              0 ****  ****    0 ROOT
