@<TRIPOS>MOLECULE
ETZ
   15    14     1     0     0
SMALL
No Charge or Current Charge


@<TRIPOS>ATOM
      1 O1           0.0090    -0.2150    -0.0290 os         1 ETZ      -0.462000
      2 C1          -2.3820    -0.4370    -0.0450 c3         1 ETZ      -0.092100
      3 C2          -1.2050     0.5510    -0.0270 c3         1 ETZ       0.162600
      4 C3           1.2090     0.5730    -0.0140 c3         1 ETZ       0.162600
      5 C4           2.4030    -0.3930    -0.0190 c3         1 ETZ      -0.092100
      6 H1          -2.3460    -1.0650    -0.9430 hc         1 ETZ       0.042033
      7 H2          -2.3550    -1.0860     0.8390 hc         1 ETZ       0.042033
      8 H3          -3.3330     0.1070    -0.0430 hc         1 ETZ       0.042033
      9 H4          -1.2680     1.1790     0.8720 h1         1 ETZ       0.016700
     10 H5          -1.2580     1.2000    -0.9110 h1         1 ETZ       0.016700
     11 H6           1.2590     1.2230    -0.8970 h1         1 ETZ       0.016700
     12 H7           1.2500     1.2020     0.8860 h1         1 ETZ       0.016700
     13 H8           2.3790    -1.0430     0.8640 hc         1 ETZ       0.042033
     14 H9           2.3890    -1.0210    -0.9170 hc         1 ETZ       0.042033
     15 H10          3.3450     0.1680    -0.0070 hc         1 ETZ       0.042033
@<TRIPOS>BOND
     1     1     3 1   
     2     1     4 1   
     3     2     3 1   
     4     2     6 1   
     5     2     7 1   
     6     2     8 1   
     7     3     9 1   
     8     3    10 1   
     9     4     5 1   
    10     4    11 1   
    11     4    12 1   
    12     5    13 1   
    13     5    14 1   
    14     5    15 1   
@<TRIPOS>SUBSTRUCTURE
     1 ETZ         1 TEMP              0 ****  ****    0 ROOT
