@<TRIPOS>MOLECULE
ETZ
   15    14     1     0     0
SMALL
abcg2


@<TRIPOS>ATOM
      1 O1           0.0090    -0.2540    -0.0310 os         1 ETZ      -0.462000
      2 C1          -2.3660    -0.4200    -0.0440 c3         1 ETZ      -0.092100
      3 C2          -1.1730     0.5100    -0.0270 c3         1 ETZ       0.162600
      4 C3           1.1770     0.5320    -0.0150 c3         1 ETZ       0.162600
      5 C4           2.3870    -0.3760    -0.0190 c3         1 ETZ      -0.092100
      6 H1          -2.3680    -1.0470    -0.9360 hc         1 ETZ       0.042033
      7 H2          -2.3770    -1.0670     0.8340 hc         1 ETZ       0.042033
      8 H3          -3.2890     0.1600    -0.0430 hc         1 ETZ       0.042033
      9 H4          -1.2120     1.1560     0.8620 h1         1 ETZ       0.016700
     10 H5          -1.2040     1.1780    -0.9000 h1         1 ETZ       0.016700
     11 H6           1.2050     1.1990    -0.8890 h1         1 ETZ       0.016700
     12 H7           1.1950     1.1790     0.8730 h1         1 ETZ       0.016700
     13 H8           2.3980    -1.0250     0.8580 hc         1 ETZ       0.042033
     14 H9           2.4120    -1.0010    -0.9120 hc         1 ETZ       0.042033
     15 H10          3.3000     0.2200    -0.0030 hc         1 ETZ       0.042033
@<TRIPOS>BOND
     1     1     3 1   
     2     1     4 1   
     3     2     3 1   
     4     2     6 1   
     5     2     7 1   
     6     2     8 1   
     7     3     9 1   
     8     3    10 1   
     9     4     5 1   
    10     4    11 1   
    11     4    12 1   
    12     5    13 1   
    13     5    14 1   
    14     5    15 1   
@<TRIPOS>SUBSTRUCTURE
     1 ETZ         1 TEMP              0 ****  ****    0 ROOT
