@<TRIPOS>MOLECULE
EU0
   24    23     1     0     0
SMALL
bcc


@<TRIPOS>ATOM
      1 N          -14.4600     1.3930   -12.3910 nv         1 EU0      -0.547600
      2 CT         -15.4760     2.0220   -11.8080 cz         1 EU0       0.498300
      3 NT2        -16.2260     2.8450   -12.5410 nv         1 EU0      -0.531700
      4 NE         -15.7750     1.8290   -10.5360 nu         1 EU0      -0.323200
      5 CA         -15.2380     0.8210    -9.6310 c3         1 EU0      -0.128000
      6 CB         -14.2320     1.4460    -8.6460 c3         1 EU0      -0.060700
      7 CG1        -13.7040     0.4180    -7.6490 c3         1 EU0      -0.088100
      8 CG2        -13.0640     2.1080    -9.3690 c3         1 EU0      -0.088100
      9 C          -16.4500     0.1920    -8.8840 c          1 EU0       0.929600
     10 O          -17.3840     0.9790    -8.6330 o          1 EU0      -0.782300
     11 H2         -13.7970     0.8570   -11.8600 hn         1 EU0       0.310450
     12 HT22       -16.9790     3.3680   -12.1270 hn         1 EU0       0.310450
     13 HT21       -15.9400     3.1170   -13.4670 hn         1 EU0       0.310450
     14 HE         -16.6100     2.2700   -10.1680 hn         1 EU0       0.339700
     15 HA         -14.7390     0.0370   -10.2070 h1         1 EU0       0.054700
     16 HB         -14.7690     2.2220    -8.0880 hc         1 EU0       0.066700
     17 HG11       -12.9490     0.8740    -7.0080 hc         1 EU0       0.033700
     18 HG13       -14.4840     0.0180    -7.0050 hc         1 EU0       0.033700
     19 HG12       -13.2320    -0.4210    -8.1670 hc         1 EU0       0.033700
     20 HG23       -12.3910     2.5760    -8.6500 hc         1 EU0       0.033700
     21 HG22       -12.4780     1.3730    -9.9290 hc         1 EU0       0.033700
     22 HG21       -13.3840     2.8890   -10.0590 hc         1 EU0       0.033700
     23 OXT        -16.3600    -1.0100    -8.5940 o          1 EU0      -0.782300
     24 H3         -14.2180     1.5870   -13.3490 hn         1 EU0       0.310450
@<TRIPOS>BOND
     1     1     2 2   
     2     1    11 1   
     3     1    24 1   
     4     2     3 1   
     5     2     4 1   
     6     3    12 1   
     7     3    13 1   
     8     4     5 1   
     9     4    14 1   
    10     5     6 1   
    11     5     9 1   
    12     5    15 1   
    13     6     7 1   
    14     6     8 1   
    15     6    16 1   
    16     7    17 1   
    17     7    18 1   
    18     7    19 1   
    19     8    20 1   
    20     8    21 1   
    21     8    22 1   
    22     9    10 1   
    23     9    23 1   
@<TRIPOS>SUBSTRUCTURE
     1 EU0         1 TEMP              0 ****  ****    0 ROOT
