@<TRIPOS>MOLECULE
EU0
   24    23     1     0     0
SMALL
No Charge or Current Charge


@<TRIPOS>ATOM
      1 N          -14.5650     1.3410   -12.4780 nv         1 EU0      -0.547600
      2 CT         -15.5110     2.0250   -11.8560 cz         1 EU0       0.498300
      3 NT2        -16.1950     2.9140   -12.5540 nv         1 EU0      -0.531700
      4 NE         -15.7590     1.8580   -10.5560 nu         1 EU0      -0.323200
      5 CA         -15.2090     0.8310    -9.6230 c3         1 EU0      -0.128000
      6 CB         -14.2140     1.4810    -8.6100 c3         1 EU0      -0.060700
      7 CG1        -13.7200     0.4700    -7.5460 c3         1 EU0      -0.088100
      8 CG2        -13.0020     2.1390    -9.3170 c3         1 EU0      -0.088100
      9 C          -16.3860     0.0830    -8.9250 c          1 EU0       0.929600
     10 O          -17.2500     0.7530    -8.3710 o          1 EU0      -0.782300
     11 H2         -13.9820     0.6760   -11.9900 hn         1 EU0       0.310450
     12 HT22       -16.9240     3.4820   -12.1440 hn         1 EU0       0.310450
     13 HT21       -16.0230     3.0710   -13.5370 hn         1 EU0       0.310450
     14 HE         -16.4980     2.4350   -10.1650 hn         1 EU0       0.339700
     15 HA         -14.6610     0.0690   -10.1900 h1         1 EU0       0.054700
     16 HB         -14.7490     2.2750    -8.0720 hc         1 EU0       0.066700
     17 HG11       -13.0080     0.9450    -6.8610 hc         1 EU0       0.033700
     18 HG13       -14.5500     0.0880    -6.9420 hc         1 EU0       0.033700
     19 HG12       -13.2180    -0.3820    -8.0220 hc         1 EU0       0.033700
     20 HG23       -12.3150     2.5760    -8.5820 hc         1 EU0       0.033700
     21 HG22       -12.4460     1.4000    -9.9070 hc         1 EU0       0.033700
     22 HG21       -13.3210     2.9460    -9.9870 hc         1 EU0       0.033700
     23 OXT        -16.4690    -1.1300    -9.0700 o          1 EU0      -0.782300
     24 H3         -14.3670     1.4640   -13.4620 hn         1 EU0       0.310450
@<TRIPOS>BOND
     1     1     2 2   
     2     1    11 1   
     3     1    24 1   
     4     2     3 1   
     5     2     4 1   
     6     3    12 1   
     7     3    13 1   
     8     4     5 1   
     9     4    14 1   
    10     5     6 1   
    11     5     9 1   
    12     5    15 1   
    13     6     7 1   
    14     6     8 1   
    15     6    16 1   
    16     7    17 1   
    17     7    18 1   
    18     7    19 1   
    19     8    20 1   
    20     8    21 1   
    21     8    22 1   
    22     9    10 1   
    23     9    23 1   
@<TRIPOS>SUBSTRUCTURE
     1 EU0         1 TEMP              0 ****  ****    0 ROOT
