@<TRIPOS>MOLECULE
EU1
   64    66     1     0     0
SMALL
abcg2


@<TRIPOS>ATOM
      1 C01        -11.4750    -1.3750     1.7650 c3         1 EU1       0.157900
      2 C03         -9.6380    -0.3890     0.6670 ca         1 EU1       0.609300
      3 C05         -7.6960    -0.0700     1.8190 ca         1 EU1       0.406900
      4 C06         -7.0440     0.4810     0.7350 ca         1 EU1      -0.186300
      5 C07         -5.6200     0.9250     0.8190 c3         1 EU1       0.222900
      6 C09         -3.5210     0.2370    -0.0650 ca         1 EU1       0.150100
      7 C10         -2.8090    -0.6810    -0.8430 ca         1 EU1      -0.172000
      8 C11         -1.4510    -0.5310    -1.0290 ca         1 EU1      -0.059500
      9 C12         -0.7450     0.5380    -0.4630 ca         1 EU1      -0.093800
     10 C13         -1.4700     1.4310     0.3240 ca         1 EU1      -0.059500
     11 C14         -2.8380     1.2950     0.5240 ca         1 EU1      -0.172000
     12 C15          0.7030     0.7120    -0.6810 ce         1 EU1      -0.025400
     13 C16          1.4640     1.5280     0.3190 c6         1 EU1      -0.126200
     14 C17          2.9690     1.5010     0.2080 c          1 EU1       0.575000
     15 C21          5.5540    -0.2680    -0.2660 c3         1 EU1      -0.079400
     16 C22          7.0770    -0.4450    -0.3280 c3         1 EU1      -0.311000
     17 C23          7.5910    -0.4910    -1.7660 c3         1 EU1      -0.092100
     18 C24          7.4340    -1.6660     0.5340 c          1 EU1       0.622100
     19 C32          2.7960     0.3400    -1.9740 c6         1 EU1       0.148200
     20 C33          1.3390     0.1990    -1.7330 c2         1 EU1      -0.242200
     21 C34         -7.7660     0.5900    -0.4570 ca         1 EU1      -0.014000
     22 C35         -9.0670     0.1570    -0.4960 ca         1 EU1       0.027000
     23 N04         -8.9590    -0.4910     1.7850 nb         1 EU1      -0.757000
     24 N19          3.5260     0.9570    -0.8860 n          1 EU1      -0.404800
     25 N26          8.1670    -2.6060    -0.0720 ns         1 EU1      -0.362400
     26 O02        -10.8950    -0.8010     0.5990 os         1 EU1      -0.441300
     27 O08         -4.8430     0.0090     0.0620 os         1 EU1      -0.341100
     28 O18          3.6430     1.9910     1.1090 o          1 EU1      -0.581000
     29 O25          7.0290    -1.7630     1.6780 o          1 EU1      -0.577100
     30 O27          8.6280    -3.6600     0.6520 oh         1 EU1      -0.411100
     31 S28          7.9730     0.9570     0.4710 s6         1 EU1       1.057000
     32 CL1        -10.0050     0.2730    -1.9370 cl         1 EU1      -0.163000
     33 H1         -11.5000    -0.6670     2.5930 h1         1 EU1       0.051033
     34 H2         -12.4900    -1.6440     1.4860 h1         1 EU1       0.051033
     35 H3         -10.9370    -2.2690     2.0810 h1         1 EU1       0.051033
     36 H4          -7.1820    -0.1790     2.7680 h4         1 EU1       0.024100
     37 H5          -5.5110     1.9380     0.4180 h1         1 EU1       0.044700
     38 H6          -5.2910     0.9450     1.8630 h1         1 EU1       0.044700
     39 H7          -3.3290    -1.5200    -1.2870 ha         1 EU1       0.125000
     40 H8          -0.9280    -1.2770    -1.6140 ha         1 EU1       0.114000
     41 H9          -0.9770     2.2720     0.7920 ha         1 EU1       0.114000
     42 H10         -3.3440     2.0230     1.1440 ha         1 EU1       0.125000
     43 H11          1.1660     2.5810     0.2600 hc         1 EU1       0.085700
     44 H12          1.2160     1.2150     1.3370 hc         1 EU1       0.085700
     45 H13          5.3770     1.8760    -0.6370 h1         1 EU1       0.068200
     46 H14          5.2110     0.8940    -2.0700 h1         1 EU1       0.068200
     47 H15          5.2320    -0.2380     0.7740 hc         1 EU1       0.069700
     48 H16          7.3250     0.4110    -2.3090 hc         1 EU1       0.059033
     49 H17          8.6750    -0.5890    -1.8300 hc         1 EU1       0.059033
     50 H18          7.1350    -1.3300    -2.2920 hc         1 EU1       0.059033
     51 H19          7.0960     0.5470     2.6450 h1         1 EU1       0.120033
     52 H20          7.6540     2.2230     2.3870 h1         1 EU1       0.120033
     53 H21          6.0850     1.7000     1.7270 h1         1 EU1       0.120033
     54 H22          3.2210    -0.6510    -2.1670 h1         1 EU1       0.048200
     55 H23          2.9620     0.9150    -2.8930 h1         1 EU1       0.048200
     56 H24          0.8050    -0.3510    -2.4990 ha         1 EU1       0.188000
     57 H25         -7.3110     1.0160    -1.3430 ha         1 EU1       0.140000
     58 H26          8.6120    -2.4840    -0.9690 hn         1 EU1       0.348500
     59 H27          8.0120    -4.3870     0.4920 ho         1 EU1       0.444000
     60 H30          5.1230    -1.1800    -0.6920 hc         1 EU1       0.069700
     61 C20          4.9730     0.9370    -1.0070 c3         1 EU1       0.092000
     62 C29          7.1000     1.3880     1.9600 c3         1 EU1      -0.315100
     63 O30          9.2990     0.4510     0.8290 o          1 EU1      -0.514000
     64 O31          7.9070     2.1080    -0.4310 o          1 EU1      -0.514000
@<TRIPOS>BOND
     1     1    26 1   
     2     1    33 1   
     3     1    34 1   
     4     1    35 1   
     5     2    22 ar  
     6     2    23 ar  
     7     2    26 1   
     8     3     4 ar  
     9     3    23 ar  
    10     3    36 1   
    11     4     5 1   
    12     4    21 ar  
    13     5    27 1   
    14     5    37 1   
    15     5    38 1   
    16     6     7 ar  
    17     6    11 ar  
    18     6    27 1   
    19     7     8 ar  
    20     7    39 1   
    21     8     9 ar  
    22     8    40 1   
    23     9    10 ar  
    24     9    12 1   
    25    10    11 ar  
    26    10    41 1   
    27    11    42 1   
    28    12    13 1   
    29    12    20 2   
    30    13    14 1   
    31    13    43 1   
    32    13    44 1   
    33    14    24 1   
    34    14    28 2   
    35    15    16 1   
    36    15    47 1   
    37    15    60 1   
    38    15    61 1   
    39    16    17 1   
    40    16    18 1   
    41    16    31 1   
    42    17    48 1   
    43    17    49 1   
    44    17    50 1   
    45    18    25 1   
    46    18    29 2   
    47    19    20 1   
    48    19    24 1   
    49    19    54 1   
    50    19    55 1   
    51    20    56 1   
    52    21    22 ar  
    53    21    57 1   
    54    22    32 1   
    55    24    61 1   
    56    25    30 1   
    57    25    58 1   
    58    30    59 1   
    59    31    62 1   
    60    31    63 2   
    61    31    64 2   
    62    45    61 1   
    63    46    61 1   
    64    51    62 1   
    65    52    62 1   
    66    53    62 1   
@<TRIPOS>SUBSTRUCTURE
     1 EU1         1 TEMP              0 ****  ****    0 ROOT
