@<TRIPOS>MOLECULE
EU1
   64    66     1     0     0
SMALL
No Charge or Current Charge


@<TRIPOS>ATOM
      1 C01        -10.8390    -1.9750     2.6670 c3         1 EU1       0.157900
      2 C03         -9.2380    -1.0110     1.0650 ca         1 EU1       0.609300
      3 C05         -7.3460     0.0890     1.8370 ca         1 EU1       0.406900
      4 C06         -6.9100     0.3680     0.5310 ca         1 EU1      -0.186300
      5 C07         -5.6170     1.1270     0.3020 c3         1 EU1       0.222900
      6 C09         -3.2850     0.5480    -0.2500 ca         1 EU1       0.150100
      7 C10         -2.3520    -0.4640    -0.5200 ca         1 EU1      -0.172000
      8 C11         -1.0120    -0.1440    -0.7960 ca         1 EU1      -0.059500
      9 C12         -0.5880     1.2000    -0.8030 ca         1 EU1      -0.093800
     10 C13         -1.5260     2.2160    -0.5310 ca         1 EU1      -0.059500
     11 C14         -2.8680     1.8960    -0.2560 ca         1 EU1      -0.172000
     12 C15          0.8350     1.5390    -1.0960 ce         1 EU1      -0.025400
     13 C16          1.5160     2.6610    -0.3140 c6         1 EU1      -0.126200
     14 C17          2.9400     2.2240     0.0460 c          1 EU1       0.575000
     15 C21          5.2900    -0.1820    -0.3930 c3         1 EU1      -0.079400
     16 C22          6.7570    -0.6970    -0.1310 c3         1 EU1      -0.311000
     17 C23          7.6240    -0.4920    -1.4270 c3         1 EU1      -0.092100
     18 C24          6.6810    -2.1820     0.2980 c          1 EU1       0.622100
     19 C32          3.0380     1.2700    -2.2690 c6         1 EU1       0.148200
     20 C33          1.5810     0.8960    -2.0210 c2         1 EU1      -0.242200
     21 C34         -7.6890    -0.0760    -0.5530 ca         1 EU1      -0.014000
     22 C35         -8.8730    -0.7770    -0.2820 ca         1 EU1       0.027000
     23 N04         -8.4870    -0.5850     2.1100 nb         1 EU1      -0.757000
     24 N19          3.7030     1.6810    -1.0090 n          1 EU1      -0.404800
     25 N26          7.4560    -3.0900    -0.4180 ns         1 EU1      -0.362400
     26 O02        -10.4060    -1.7010     1.3190 os         1 EU1      -0.441300
     27 O08         -4.5860     0.1710     0.0130 os         1 EU1      -0.341100
     28 O18          3.3420     2.2340     1.2030 o          1 EU1      -0.581000
     29 O25          5.9220    -2.5660     1.1780 o          1 EU1      -0.577100
     30 O27          7.6290    -4.4530     0.0430 oh         1 EU1      -0.411100
     31 S28          7.5860     0.1570     1.2600 s6         1 EU1       1.057000
     32 Cl1         -9.8710    -1.3460    -1.6270 cl         1 EU1      -0.163000
     33 H1         -10.9980    -1.0440     3.2250 h1         1 EU1       0.051033
     34 H2         -11.7850    -2.5310     2.6580 h1         1 EU1       0.051033
     35 H3         -10.0950    -2.5800     3.2020 h1         1 EU1       0.051033
     36 H4          -6.7650     0.4150     2.6990 h4         1 EU1       0.024100
     37 H5          -5.7460     1.8230    -0.5380 h1         1 EU1       0.044700
     38 H6          -5.3650     1.7120     1.1970 h1         1 EU1       0.044700
     39 H7          -2.6690    -1.5040    -0.5140 ha         1 EU1       0.125000
     40 H8          -0.3020    -0.9430    -0.9940 ha         1 EU1       0.114000
     41 H9          -1.2210     3.2600    -0.5430 ha         1 EU1       0.114000
     42 H10         -3.5640     2.7050    -0.0540 ha         1 EU1       0.125000
     43 H11          1.5980     3.5040    -1.0110 hc         1 EU1       0.085700
     44 H12          0.9690     2.9600     0.5890 hc         1 EU1       0.085700
     45 H13          5.5480     1.9640    -0.0380 h1         1 EU1       0.068200
     46 H14          5.6600     1.4970    -1.7370 h1         1 EU1       0.068200
     47 H15          4.6660    -0.3590     0.4920 hc         1 EU1       0.069700
     48 H16          7.6950     0.5670    -1.7020 hc         1 EU1       0.059033
     49 H17          8.6550    -0.8440    -1.2880 hc         1 EU1       0.059033
     50 H18          7.1890    -1.0230    -2.2840 hc         1 EU1       0.059033
     51 H19          6.1160    -0.7540     2.8950 h1         1 EU1       0.120033
     52 H20          6.9160     0.7630     3.4390 h1         1 EU1       0.120033
     53 H21          5.5510     0.8470     2.2700 h1         1 EU1       0.120033
     54 H22          3.5680     0.4160    -2.7160 h1         1 EU1       0.048200
     55 H23          3.0880     2.1010    -2.9870 h1         1 EU1       0.048200
     56 H24          1.1730     0.0880    -2.6290 ha         1 EU1       0.188000
     57 H25         -7.3830     0.1150    -1.5790 ha         1 EU1       0.140000
     58 H26          8.1650    -2.7430    -1.0610 hn         1 EU1       0.348500
     59 H27          7.4180    -4.9950    -0.7530 ho         1 EU1       0.444000
     60 H30          4.8480    -0.8030    -1.1820 hc         1 EU1       0.069700
     61 C20          5.1180     1.3050    -0.8020 c3         1 EU1       0.092000
     62 C29          6.4090     0.2590     2.6100 c3         1 EU1      -0.315100
     63 O30          8.6990    -0.6870     1.7090 o          1 EU1      -0.514000
     64 O31          7.8740     1.5340     0.8430 o          1 EU1      -0.514000
@<TRIPOS>BOND
     1     1    26 1   
     2     1    33 1   
     3     1    34 1   
     4     1    35 1   
     5     2    22 ar  
     6     2    23 ar  
     7     2    26 1   
     8     3     4 ar  
     9     3    23 ar  
    10     3    36 1   
    11     4     5 1   
    12     4    21 ar  
    13     5    27 1   
    14     5    37 1   
    15     5    38 1   
    16     6     7 ar  
    17     6    11 ar  
    18     6    27 1   
    19     7     8 ar  
    20     7    39 1   
    21     8     9 ar  
    22     8    40 1   
    23     9    10 ar  
    24     9    12 1   
    25    10    11 ar  
    26    10    41 1   
    27    11    42 1   
    28    12    13 1   
    29    12    20 2   
    30    13    14 1   
    31    13    43 1   
    32    13    44 1   
    33    14    24 1   
    34    14    28 2   
    35    15    16 1   
    36    15    47 1   
    37    15    60 1   
    38    15    61 1   
    39    16    17 1   
    40    16    18 1   
    41    16    31 1   
    42    17    48 1   
    43    17    49 1   
    44    17    50 1   
    45    18    25 1   
    46    18    29 2   
    47    19    20 1   
    48    19    24 1   
    49    19    54 1   
    50    19    55 1   
    51    20    56 1   
    52    21    22 ar  
    53    21    57 1   
    54    22    32 1   
    55    24    61 1   
    56    25    30 1   
    57    25    58 1   
    58    30    59 1   
    59    31    62 1   
    60    31    63 2   
    61    31    64 2   
    62    45    61 1   
    63    46    61 1   
    64    51    62 1   
    65    52    62 1   
    66    53    62 1   
@<TRIPOS>SUBSTRUCTURE
     1 EU1         1 TEMP              0 ****  ****    0 ROOT
