@<TRIPOS>MOLECULE
EU2
   41    44     1     0     0
SMALL
No Charge or Current Charge


@<TRIPOS>ATOM
      1 C2          -0.1040    -2.3440     0.3120 ca         1 EU2      -0.065000
      2 C3           1.2710    -2.6290     0.3860 ca         1 EU2       0.164900
      3 N4           2.2030    -1.7000     0.0990 nb         1 EU2      -0.239000
      4 C5           1.7470    -0.4830    -0.2510 ca         1 EU2       0.393900
      5 C7           4.1320     0.4100    -0.3970 c6         1 EU2       0.246500
      6 C8           4.8080     1.4990    -1.2610 c6         1 EU2      -0.132900
      7 C11          6.0630     0.6340     1.2320 c6         1 EU2       0.157100
      8 C12          4.5250     0.5860     1.0900 c6         1 EU2      -0.132900
      9 C14         -0.4850    -1.0320    -0.0880 cp         1 EU2       0.241500
     10 C15         -1.9050    -0.5720    -0.2160 cp         1 EU2      -0.167500
     11 C16         -2.8830    -1.3590    -0.8960 ca         1 EU2      -0.055000
     12 C19         -5.9070     1.0250    -0.4810 c5         1 EU2       0.145300
     13 C21         -4.2920     2.3420     0.6240 c          1 EU2       0.582600
     14 C23         -3.6350     1.0960     0.1640 ca         1 EU2      -0.173600
     15 C24         -2.3030     0.6890     0.3110 ca         1 EU2       0.004000
     16 Cl1         -1.2600    -3.5980     0.7730 cl         1 EU2      -0.175000
     17 N6           2.6730     0.5070    -0.5510 nu         1 EU2      -0.911100
     18 C9           6.3340     1.5030    -1.0130 c6         1 EU2       0.157100
     19 O10          6.5990     1.6820     0.3950 os         1 EU2      -0.448000
     20 N13          0.4630    -0.1090    -0.3520 nb         1 EU2      -0.250000
     21 C17         -4.2180    -0.9220    -1.0300 ca         1 EU2      -0.107000
     22 C18         -4.5710     0.3180    -0.4830 ca         1 EU2      -0.073300
     23 N20         -5.6150     2.2810     0.2390 ns         1 EU2      -0.520900
     24 O22         -3.7760     3.2650     1.2330 o          1 EU2      -0.541000
     25 H25          1.6320    -3.6100     0.6890 h4         1 EU2       0.034100
     26 H27          4.4930    -0.5700    -0.7500 h1         1 EU2       0.078700
     27 H28          4.6050     1.3200    -2.3250 hc         1 EU2       0.059200
     28 H29          4.4010     2.4910    -1.0180 hc         1 EU2       0.059200
     29 H33          6.3390     0.8340     2.2770 h1         1 EU2       0.047950
     30 H32          6.5070    -0.3300     0.9390 h1         1 EU2       0.047950
     31 H34          4.0930     1.5120     1.4920 hc         1 EU2       0.059200
     32 H35          4.1250    -0.2400     1.6930 hc         1 EU2       0.059200
     33 H36         -2.6000    -2.3110    -1.3390 ha         1 EU2       0.125000
     34 H39         -6.2540     1.2110    -1.5060 h1         1 EU2       0.060700
     35 H38         -6.6680     0.4240     0.0360 h1         1 EU2       0.060700
     36 H41         -1.5900     1.3290     0.8300 ha         1 EU2       0.147000
     37 H26          2.2710     1.4090    -0.8080 hn         1 EU2       0.506000
     38 H30          6.7810     0.5560    -1.3510 h1         1 EU2       0.047950
     39 H31          6.8050     2.3230    -1.5730 h1         1 EU2       0.047950
     40 H37         -4.9530    -1.5320    -1.5500 ha         1 EU2       0.123000
     41 H40         -6.2530     3.0380     0.4540 hn         1 EU2       0.333500
@<TRIPOS>BOND
     1     1     2 ar  
     2     1     9 ar  
     3     1    16 1   
     4     2     3 ar  
     5     2    25 1   
     6     3     4 ar  
     7     4    17 1   
     8     4    20 ar  
     9     5     6 1   
    10     5     8 1   
    11     5    17 1   
    12     5    26 1   
    13     6    18 1   
    14     6    27 1   
    15     6    28 1   
    16     7     8 1   
    17     7    19 1   
    18     7    29 1   
    19     7    30 1   
    20     8    31 1   
    21     8    32 1   
    22     9    10 1   
    23     9    20 ar  
    24    10    11 ar  
    25    10    15 ar  
    26    11    21 ar  
    27    11    33 1   
    28    12    22 1   
    29    12    23 1   
    30    12    34 1   
    31    12    35 1   
    32    13    14 1   
    33    13    23 1   
    34    13    24 2   
    35    14    15 ar  
    36    14    22 ar  
    37    15    36 1   
    38    17    37 1   
    39    18    19 1   
    40    18    38 1   
    41    18    39 1   
    42    21    22 ar  
    43    21    40 1   
    44    23    41 1   
@<TRIPOS>SUBSTRUCTURE
     1 EU2         1 TEMP              0 ****  ****    0 ROOT
