@<TRIPOS>MOLECULE
EU2
   41    44     1     0     0
SMALL
bcc


@<TRIPOS>ATOM
      1 C2          -0.0870    -2.2490     0.3210 ca         1 EU2      -0.287200
      2 C3           1.2730    -2.4960     0.4090 ca         1 EU2       0.493200
      3 N4           2.1850    -1.5910     0.1180 nb         1 EU2      -0.765000
      4 C5           1.7310    -0.3910    -0.2640 ca         1 EU2       0.919900
      5 C7           4.0530     0.4390    -0.3850 c6         1 EU2       0.246500
      6 C8           4.7840     1.4510    -1.2590 c6         1 EU2      -0.132900
      7 C11          5.9840     0.6110     1.1910 c6         1 EU2       0.133900
      8 C12          4.4680     0.6390     1.0730 c6         1 EU2      -0.132900
      9 C14         -0.4750    -0.9750    -0.1000 cp         1 EU2       0.569800
     10 C15         -1.8850    -0.5470    -0.2300 cp         1 EU2      -0.167500
     11 C16         -2.8160    -1.3150    -0.9380 ca         1 EU2      -0.073000
     12 C19         -5.8390     0.9880    -0.4830 c5         1 EU2       0.145300
     13 C21         -4.2590     2.2790     0.6950 c          1 EU2       0.725100
     14 C23         -3.5880     1.0590     0.1870 ca         1 EU2      -0.173600
     15 C24         -2.2710     0.6680     0.3290 ca         1 EU2      -0.014000
     16 CL1         -1.2050    -3.4730     0.8030 cl         1 EU2      -0.083400
     17 N6           2.6250     0.5590    -0.5820 nu         1 EU2      -0.855900
     18 C9           6.2820     1.3820    -0.9960 c6         1 EU2       0.133900
     19 O10          6.5930     1.5800     0.3650 os         1 EU2      -0.401600
     20 N13          0.4390    -0.0610    -0.3770 nb         1 EU2      -0.776000
     21 C17         -4.1310    -0.9000    -1.0900 ca         1 EU2      -0.125000
     22 C18         -4.5110     0.2960    -0.5080 ca         1 EU2      -0.073300
     23 N20         -5.5390     2.1800     0.2770 ns         1 EU2      -0.587900
     24 O22         -3.7650     3.1820     1.3490 o          1 EU2      -0.616500
     25 H25          1.6290    -3.4660     0.7390 h4         1 EU2       0.034100
     26 H27          4.3510    -0.5660    -0.6970 h1         1 EU2       0.078700
     27 H28          4.5930     1.2570    -2.3160 hc         1 EU2       0.059200
     28 H29          4.4210     2.4610    -1.0380 hc         1 EU2       0.059200
     29 H33          6.2950     0.8230     2.2160 h1         1 EU2       0.047950
     30 H32          6.3550    -0.3940     0.9370 h1         1 EU2       0.047950
     31 H34          4.0850     1.6000     1.4310 hc         1 EU2       0.059200
     32 H35          4.0400    -0.1430     1.7040 hc         1 EU2       0.059200
     33 H36         -2.5050    -2.2430    -1.3990 ha         1 EU2       0.143000
     34 H39         -6.1940     1.2280    -1.4890 h1         1 EU2       0.060700
     35 H38         -6.6060     0.3810     0.0040 h1         1 EU2       0.060700
     36 H41         -1.5600     1.2790     0.8710 ha         1 EU2       0.165000
     37 H26          2.2480     1.4730    -0.7780 hn         1 EU2       0.450800
     38 H30          6.6680     0.4110    -1.3390 h1         1 EU2       0.047950
     39 H31          6.8010     2.1580    -1.5600 h1         1 EU2       0.047950
     40 H37         -4.8310    -1.5030    -1.6550 ha         1 EU2       0.141000
     41 H40         -6.2390     2.8710     0.4940 hn         1 EU2       0.333500
@<TRIPOS>BOND
     1     1     2 ar  
     2     1     9 ar  
     3     1    16 1   
     4     2     3 ar  
     5     2    25 1   
     6     3     4 ar  
     7     4    17 1   
     8     4    20 ar  
     9     5     6 1   
    10     5     8 1   
    11     5    17 1   
    12     5    26 1   
    13     6    18 1   
    14     6    27 1   
    15     6    28 1   
    16     7     8 1   
    17     7    19 1   
    18     7    29 1   
    19     7    30 1   
    20     8    31 1   
    21     8    32 1   
    22     9    10 1   
    23     9    20 ar  
    24    10    11 ar  
    25    10    15 ar  
    26    11    21 ar  
    27    11    33 1   
    28    12    22 1   
    29    12    23 1   
    30    12    34 1   
    31    12    35 1   
    32    13    14 1   
    33    13    23 1   
    34    13    24 2   
    35    14    15 ar  
    36    14    22 ar  
    37    15    36 1   
    38    17    37 1   
    39    18    19 1   
    40    18    38 1   
    41    18    39 1   
    42    21    22 ar  
    43    21    40 1   
    44    23    41 1   
@<TRIPOS>SUBSTRUCTURE
     1 EU2         1 TEMP              0 ****  ****    0 ROOT
