@<TRIPOS>MOLECULE
EU4
   54    58     1     0     0
SMALL
bcc


@<TRIPOS>ATOM
      1 C10          0.4870     2.1500     0.0790 ca         1 EU4      -0.148300
      2 N12          2.1530     0.4330    -0.0180 nb         1 EU4      -0.675000
      3 C13          3.1340     1.3670     0.0120 cp         1 EU4       0.466800
      4 C15          1.4980     3.1340     0.1140 ca         1 EU4      -0.010000
      5 C17         -0.1820     4.8580     0.2110 ca         1 EU4      -0.110000
      6 C20          4.7420    -0.5280    -0.0300 ca         1 EU4      -0.041000
      7 C21          6.0310    -1.0390    -0.0630 ca         1 EU4      -0.205300
      8 C22          7.1280    -0.1860    -0.1040 ca         1 EU4      -0.069000
      9 C24          5.6290     1.6960    -0.0660 ca         1 EU4      -0.088000
     10 C01         -4.1900    -4.1840    -1.1110 c3         1 EU4      -0.105100
     11 C02         -4.9270    -3.5470     0.0570 c3         1 EU4       0.080000
     12 C03         -4.4420    -4.0620     1.4050 c3         1 EU4      -0.105100
     13 C06         -3.8470    -0.1950     0.0110 cc         1 EU4       0.431800
     14 C07         -2.7900     0.7410     0.0500 cg         1 EU4      -0.091200
     15 C09         -0.8810     2.5430     0.1120 ca         1 EU4       0.064000
     16 C11          0.9050     0.8020     0.0130 ca         1 EU4       0.450200
     17 C14          2.8400     2.7070     0.0790 ca         1 EU4      -0.221300
     18 C16          1.1380     4.5000     0.1810 ca         1 EU4      -0.114000
     19 C18         -1.1950     3.8840     0.1770 ca         1 EU4      -0.111000
     20 C19          4.5200     0.8490    -0.0290 cp         1 EU4      -0.146500
     21 C23          6.9140     1.1830    -0.1030 ca         1 EU4      -0.143000
     22 C29         -5.2380     0.0640    -0.0790 ca         1 EU4      -0.506500
     23 C30         -5.8270    -1.1980    -0.0800 ca         1 EU4       0.484800
     24 C32         -7.8500    -0.3430    -0.2210 ca         1 EU4       0.724900
     25 C34         -6.1190     1.1660    -0.1620 ca         1 EU4       0.791200
     26 F26          7.3940    -2.8890     0.4520 f          1 EU4      -0.234967
     27 F27          5.2650    -3.1910     0.5180 f          1 EU4      -0.234967
     28 F28          6.2620    -2.9760    -1.3740 f          1 EU4      -0.234967
     29 N04         -4.8210    -2.0940     0.0010 na         1 EU4       0.019200
     30 N05         -3.6320    -1.4960     0.0580 nd         1 EU4      -0.493100
     31 N31         -7.1370    -1.4480    -0.1490 nb         1 EU4      -0.756000
     32 N33         -7.4290     0.9220    -0.2320 nb         1 EU4      -0.836000
     33 N35         -5.6960     2.4270    -0.1710 nv         1 EU4      -0.957500
     34 H1          -0.4590     5.9020     0.2640 ha         1 EU4       0.138000
     35 H2           3.8880    -1.1900    -0.0030 ha         1 EU4       0.173000
     36 H3           8.1390    -0.5700    -0.1330 ha         1 EU4       0.149000
     37 H4           5.5080     2.7710    -0.0680 ha         1 EU4       0.133000
     38 H5          -4.5530    -3.8010    -2.0640 hc         1 EU4       0.050200
     39 H6          -3.1170    -4.0030    -1.0500 hc         1 EU4       0.050200
     40 H7          -4.3500    -5.2620    -1.0970 hc         1 EU4       0.050200
     41 H8          -5.9940    -3.7520    -0.0420 h1         1 EU4       0.084700
     42 H9          -3.3760    -3.8760     1.5360 hc         1 EU4       0.050200
     43 H10         -4.9800    -3.5890     2.2260 hc         1 EU4       0.050200
     44 H11         -4.6060    -5.1370     1.4680 hc         1 EU4       0.050200
     45 H12          0.1620     0.0120    -0.0140 h4         1 EU4       0.037100
     46 H13          3.6150     3.4590     0.1060 ha         1 EU4       0.141000
     47 H14          1.9150     5.2520     0.2080 ha         1 EU4       0.139000
     48 H15         -2.2320     4.1920     0.2030 ha         1 EU4       0.134000
     49 H16          7.7580     1.8590    -0.1320 ha         1 EU4       0.139000
     50 H17         -8.9260    -0.4710    -0.2790 h5         1 EU4       0.047100
     51 H18         -4.7200     2.6610    -0.1280 hn         1 EU4       0.449800
     52 H19         -6.3590     3.1800    -0.2450 hn         1 EU4       0.449800
     53 C08         -1.9130     1.5700     0.0770 ch         1 EU4      -0.111000
     54 C25          6.2370    -2.5210    -0.1110 c3         1 EU4       0.721200
@<TRIPOS>BOND
     1     1     4 ar  
     2     1    15 ar  
     3     1    16 ar  
     4     2     3 ar  
     5     2    16 ar  
     6     3    17 ar  
     7     3    20 1   
     8     4    17 ar  
     9     4    18 ar  
    10     5    18 ar  
    11     5    19 ar  
    12     5    34 1   
    13     6     7 ar  
    14     6    20 ar  
    15     6    35 1   
    16     7     8 ar  
    17     7    54 1   
    18     8    21 ar  
    19     8    36 1   
    20     9    20 ar  
    21     9    21 ar  
    22     9    37 1   
    23    10    11 1   
    24    10    38 1   
    25    10    39 1   
    26    10    40 1   
    27    11    12 1   
    28    11    29 1   
    29    11    41 1   
    30    12    42 1   
    31    12    43 1   
    32    12    44 1   
    33    13    14 1   
    34    13    22 1   
    35    13    30 2   
    36    14    53 3   
    37    15    19 ar  
    38    15    53 1   
    39    16    45 1   
    40    17    46 1   
    41    18    47 1   
    42    19    48 1   
    43    21    49 1   
    44    22    23 ar  
    45    22    25 ar  
    46    23    29 1   
    47    23    31 ar  
    48    24    31 ar  
    49    24    32 ar  
    50    24    50 1   
    51    25    32 ar  
    52    25    33 1   
    53    26    54 1   
    54    27    54 1   
    55    28    54 1   
    56    29    30 1   
    57    33    51 1   
    58    33    52 1   
@<TRIPOS>SUBSTRUCTURE
     1 EU4         1 TEMP              0 ****  ****    0 ROOT
