@<TRIPOS>MOLECULE
EU4
   54    58     1     0     0
SMALL
No Charge or Current Charge


@<TRIPOS>ATOM
      1 C10          0.4640     2.0920     0.5110 ca         1 EU4      -0.083000
      2 N12          2.1390     0.4590    -0.1680 nb         1 EU4      -0.675000
      3 C13          3.1140     1.3830    -0.0080 cp         1 EU4       0.401500
      4 C15          1.4760     3.0570     0.6920 ca         1 EU4      -0.010000
      5 C17         -0.1830     4.6950     1.3820 ca         1 EU4      -0.092000
      6 C20          4.8840    -0.4380    -0.2580 ca         1 EU4      -0.023000
      7 C21          6.2000    -0.8720    -0.5280 ca         1 EU4      -0.205300
      8 C22          7.1800     0.0840    -0.8690 ca         1 EU4      -0.051000
      9 C24          5.5370     1.8680    -0.6490 ca         1 EU4      -0.070000
     10 C01         -4.2640    -4.4770    -0.3120 c3         1 EU4      -0.105100
     11 C02         -5.2540    -3.5470     0.4230 c3         1 EU4       0.109300
     12 C03         -5.3520    -3.8840     1.9270 c3         1 EU4      -0.105100
     13 C06         -3.8820    -0.2650     0.2200 cc         1 EU4       0.431800
     14 C07         -2.8510     0.6870     0.4590 cg         1 EU4      -0.091200
     15 C09         -0.8870     2.4370     0.7680 ca         1 EU4       0.064000
     16 C11          0.8530     0.8030     0.0800 ca         1 EU4       0.384900
     17 C14          2.8070     2.6950     0.4310 ca         1 EU4      -0.138000
     18 C16          1.1550     4.3550     1.1270 ca         1 EU4      -0.096000
     19 C18         -1.1980     3.7400     1.2020 ca         1 EU4      -0.093000
     20 C19          4.5220     0.9370    -0.3040 cp         1 EU4      -0.146500
     21 C23          6.8460     1.4450    -0.9280 ca         1 EU4      -0.125000
     22 C29         -5.1350    -0.0450    -0.4520 ca         1 EU4      -0.375900
     23 C30         -5.7910    -1.2420    -0.4540 ca         1 EU4       0.156500
     24 C32         -7.5240    -0.2520    -1.5650 ca         1 EU4       0.198900
     25 C34         -5.7280     1.0670    -1.0370 ca         1 EU4       0.462900
     26 F26          7.8650    -2.5970    -0.3350 f          1 EU4      -0.113667
     27 F27          5.9340    -2.9810     0.5720 f          1 EU4      -0.113667
     28 F28          6.1390    -3.0040    -1.5920 f          1 EU4      -0.113667
     29 N04         -4.9380    -2.1170     0.1970 na         1 EU4      -0.010100
     30 N05         -3.7450    -1.5320     0.6240 nd         1 EU4      -0.493100
     31 N31         -7.0100    -1.3780    -1.0130 nb         1 EU4      -0.230000
     32 N33         -6.9390     0.9710    -1.6050 nb         1 EU4      -0.310000
     33 N35         -5.1500     2.2860    -1.0790 nv         1 EU4      -1.067900
     34 H1          -0.4340     5.6990     1.7180 ha         1 EU4       0.120000
     35 H2           4.1290    -1.1800    -0.0020 ha         1 EU4       0.155000
     36 H3           8.2000    -0.2210    -1.0960 ha         1 EU4       0.131000
     37 H4           5.3130     2.9290    -0.7230 ha         1 EU4       0.115000
     38 H5          -4.2430    -4.2460    -1.3840 hc         1 EU4       0.050200
     39 H6          -3.2480    -4.3620     0.0850 hc         1 EU4       0.050200
     40 H7          -4.5610    -5.5260    -0.1970 hc         1 EU4       0.050200
     41 H8          -6.2460    -3.7340    -0.0100 h1         1 EU4       0.084700
     42 H9          -4.3850    -3.7430     2.4250 hc         1 EU4       0.050200
     43 H10         -6.0900    -3.2390     2.4180 hc         1 EU4       0.050200
     44 H11         -5.6630    -4.9260     2.0700 hc         1 EU4       0.050200
     45 H12          0.1240     0.0090    -0.0740 h4         1 EU4       0.037100
     46 H13          3.5990     3.4200     0.5820 ha         1 EU4       0.123000
     47 H14          1.9370     5.0980     1.2670 ha         1 EU4       0.121000
     48 H15         -2.2310     4.0160     1.4040 ha         1 EU4       0.116000
     49 H16          7.6050     2.1760    -1.1970 ha         1 EU4       0.121000
     50 H17         -8.5080    -0.3390    -2.0230 h5         1 EU4       0.047100
     51 H18         -4.1550     2.3560    -0.8860 hn         1 EU4       0.505000
     52 H19         -5.5430     2.9810    -1.7090 hn         1 EU4       0.505000
     53 C08         -1.9520     1.5000     0.6020 ch         1 EU4      -0.111000
     54 C25          6.5390    -2.3660    -0.4690 c3         1 EU4       0.357300
@<TRIPOS>BOND
     1     1     4 ar  
     2     1    15 ar  
     3     1    16 ar  
     4     2     3 ar  
     5     2    16 ar  
     6     3    17 ar  
     7     3    20 1   
     8     4    17 ar  
     9     4    18 ar  
    10     5    18 ar  
    11     5    19 ar  
    12     5    34 1   
    13     6     7 ar  
    14     6    20 ar  
    15     6    35 1   
    16     7     8 ar  
    17     7    54 1   
    18     8    21 ar  
    19     8    36 1   
    20     9    20 ar  
    21     9    21 ar  
    22     9    37 1   
    23    10    11 1   
    24    10    38 1   
    25    10    39 1   
    26    10    40 1   
    27    11    12 1   
    28    11    29 1   
    29    11    41 1   
    30    12    42 1   
    31    12    43 1   
    32    12    44 1   
    33    13    14 1   
    34    13    22 1   
    35    13    30 2   
    36    14    53 3   
    37    15    19 ar  
    38    15    53 1   
    39    16    45 1   
    40    17    46 1   
    41    18    47 1   
    42    19    48 1   
    43    21    49 1   
    44    22    23 ar  
    45    22    25 ar  
    46    23    29 1   
    47    23    31 ar  
    48    24    31 ar  
    49    24    32 ar  
    50    24    50 1   
    51    25    32 ar  
    52    25    33 1   
    53    26    54 1   
    54    27    54 1   
    55    28    54 1   
    56    29    30 1   
    57    33    51 1   
    58    33    52 1   
@<TRIPOS>SUBSTRUCTURE
     1 EU4         1 TEMP              0 ****  ****    0 ROOT
