@<TRIPOS>MOLECULE
EU7
   34    36     1     0     0
SMALL
abcg2


@<TRIPOS>ATOM
      1 CA           2.9340     1.2290    -0.1190 c3         1 EU7      -0.091100
      2 CB           2.2110    -0.0020     0.4160 c3         1 EU7       0.176500
      3 NC           2.8370    -1.1770    -0.1840 n8         1 EU7      -1.000200
      4 CD           0.6860     0.0020     0.1650 c6         1 EU7      -0.035000
      5 CE1          0.0610    -1.2770     0.7500 c6         1 EU7      -0.063400
      6 CE2          0.0400     1.2060     0.8690 c6         1 EU7      -0.063400
      7 CE3          0.3310     0.0690    -1.3260 c6         1 EU7      -0.063400
      8 CF1         -1.4590    -1.2830     0.5700 c6         1 EU7      -0.059033
      9 CF2         -1.4790     1.2040     0.6830 c6         1 EU7      -0.059033
     10 CF3         -1.1900     0.0600    -1.5180 c6         1 EU7      -0.059033
     11 CG1         -2.0700    -0.0740     1.2760 c6         1 EU7      -0.067733
     12 CG2         -1.8000     1.2720    -0.8110 c6         1 EU7      -0.067733
     13 CG3         -1.7780    -1.2220    -0.9250 c6         1 EU7      -0.067733
     14 HA3          2.8440     1.3090    -1.2030 hc         1 EU7       0.037033
     15 HA2          2.5640     2.1530     0.3220 hc         1 EU7       0.037033
     16 HA1          3.9990     1.1680     0.1160 hc         1 EU7       0.037033
     17 HB           2.3320     0.0050     1.5130 h1         1 EU7       0.010700
     18 HNC2         3.8390    -1.1240    -0.0410 hn         1 EU7       0.391500
     19 HNC3         2.5460    -2.0160     0.3010 hn         1 EU7       0.391500
     20 HE12         0.4690    -2.1620     0.2500 hc         1 EU7       0.041367
     21 HE11         0.3160    -1.3660     1.8130 hc         1 EU7       0.041367
     22 HE22         0.2890     1.1900     1.9370 hc         1 EU7       0.041367
     23 HE21         0.4430     2.1410     0.4680 hc         1 EU7       0.041367
     24 HE32         0.7410     0.9800    -1.7740 hc         1 EU7       0.041367
     25 HE31         0.7810    -0.7780    -1.8530 hc         1 EU7       0.041367
     26 HF1         -1.8680    -2.2050     0.9960 hc         1 EU7       0.046367
     27 HF2         -1.9030     2.0770     1.1900 hc         1 EU7       0.046367
     28 HF3         -1.4170     0.1070    -2.5870 hc         1 EU7       0.046367
     29 HG12        -3.1590    -0.0780     1.1600 hc         1 EU7       0.038200
     30 HG11        -1.8660    -0.1210     2.3510 hc         1 EU7       0.038200
     31 HG22        -2.8840     1.3000    -0.9660 hc         1 EU7       0.038200
     32 HG21        -1.3970     2.1970    -1.2390 hc         1 EU7       0.038200
     33 HG32        -1.3580    -2.0970    -1.4330 hc         1 EU7       0.038200
     34 HG31        -2.8610    -1.2540    -1.0850 hc         1 EU7       0.038200
@<TRIPOS>BOND
     1     1     2 1   
     2     1    14 1   
     3     1    15 1   
     4     1    16 1   
     5     2     3 1   
     6     2     4 1   
     7     2    17 1   
     8     3    18 1   
     9     3    19 1   
    10     4     5 1   
    11     4     6 1   
    12     4     7 1   
    13     5     8 1   
    14     5    20 1   
    15     5    21 1   
    16     6     9 1   
    17     6    22 1   
    18     6    23 1   
    19     7    10 1   
    20     7    24 1   
    21     7    25 1   
    22     8    11 1   
    23     8    13 1   
    24     8    26 1   
    25     9    11 1   
    26     9    12 1   
    27     9    27 1   
    28    10    12 1   
    29    10    13 1   
    30    10    28 1   
    31    11    29 1   
    32    11    30 1   
    33    12    31 1   
    34    12    32 1   
    35    13    33 1   
    36    13    34 1   
@<TRIPOS>SUBSTRUCTURE
     1 EU7         1 TEMP              0 ****  ****    0 ROOT
