@<TRIPOS>MOLECULE
EU7
   34    36     1     0     0
SMALL
No Charge or Current Charge


@<TRIPOS>ATOM
      1 CA           3.0290     1.2710    -0.0920 c3         1 EU7      -0.091100
      2 CB           2.2680     0.0070     0.3750 c3         1 EU7       0.176500
      3 NC           2.9420    -1.1720    -0.2010 n8         1 EU7      -1.000200
      4 CD           0.6990     0.0070     0.1510 c6         1 EU7      -0.035000
      5 CE1          0.0660    -1.2940     0.7660 c6         1 EU7      -0.063400
      6 CE2          0.0350     1.2380     0.8660 c6         1 EU7      -0.063400
      7 CE3          0.3140     0.0640    -1.3700 c6         1 EU7      -0.063400
      8 CF1         -1.4790    -1.3080     0.5830 c6         1 EU7      -0.059033
      9 CF2         -1.5100     1.2270     0.6850 c6         1 EU7      -0.059033
     10 CF3         -1.2330     0.0510    -1.5510 c6         1 EU7      -0.059033
     11 CG1         -2.0950    -0.0740     1.2990 c6         1 EU7      -0.067733
     12 CG2         -1.8500     1.2840    -0.8320 c6         1 EU7      -0.067733
     13 CG3         -1.8180    -1.2520    -0.9340 c6         1 EU7      -0.067733
     14 HA3          2.9020     1.4420    -1.1670 hc         1 EU7       0.037033
     15 HA2          2.6870     2.1630     0.4440 hc         1 EU7       0.037033
     16 HA1          4.1030     1.1710     0.1080 hc         1 EU7       0.037033
     17 HB           2.4210    -0.0650     1.4610 h1         1 EU7       0.010700
     18 HNC2         3.9030    -1.2120     0.1560 hn         1 EU7       0.391500
     19 HNC3         2.5060    -2.0170     0.1820 hn         1 EU7       0.391500
     20 HE12         0.4850    -2.1930     0.2940 hc         1 EU7       0.041367
     21 HE11         0.3120    -1.3660     1.8350 hc         1 EU7       0.041367
     22 HE22         0.2860     1.2360     1.9360 hc         1 EU7       0.041367
     23 HE21         0.4260     2.1810     0.4600 hc         1 EU7       0.041367
     24 HE32         0.7240     0.9700    -1.8380 hc         1 EU7       0.041367
     25 HE31         0.7540    -0.7850    -1.9110 hc         1 EU7       0.041367
     26 HF1         -1.8930    -2.2280     1.0170 hc         1 EU7       0.046367
     27 HF2         -1.9460     2.0990     1.1910 hc         1 EU7       0.046367
     28 HF3         -1.4770     0.0910    -2.6220 hc         1 EU7       0.046367
     29 HG12        -3.1890    -0.0840     1.1990 hc         1 EU7       0.038200
     30 HG11        -1.8820    -0.1150     2.3770 hc         1 EU7       0.038200
     31 HG22        -2.9390     1.3010    -0.9760 hc         1 EU7       0.038200
     32 HG21        -1.4640     2.2130    -1.2730 hc         1 EU7       0.038200
     33 HG32        -1.4070    -2.1320    -1.4480 hc         1 EU7       0.038200
     34 HG31        -2.9060    -1.2860    -1.0820 hc         1 EU7       0.038200
@<TRIPOS>BOND
     1     1     2 1   
     2     1    14 1   
     3     1    15 1   
     4     1    16 1   
     5     2     3 1   
     6     2     4 1   
     7     2    17 1   
     8     3    18 1   
     9     3    19 1   
    10     4     5 1   
    11     4     6 1   
    12     4     7 1   
    13     5     8 1   
    14     5    20 1   
    15     5    21 1   
    16     6     9 1   
    17     6    22 1   
    18     6    23 1   
    19     7    10 1   
    20     7    24 1   
    21     7    25 1   
    22     8    11 1   
    23     8    13 1   
    24     8    26 1   
    25     9    11 1   
    26     9    12 1   
    27     9    27 1   
    28    10    12 1   
    29    10    13 1   
    30    10    28 1   
    31    11    29 1   
    32    11    30 1   
    33    12    31 1   
    34    12    32 1   
    35    13    33 1   
    36    13    34 1   
@<TRIPOS>SUBSTRUCTURE
     1 EU7         1 TEMP              0 ****  ****    0 ROOT
