@<TRIPOS>MOLECULE
EU8
   90    92     1     0     0
SMALL
bcc


@<TRIPOS>ATOM
      1 O63         16.0450    30.1120    23.7900 oh         1 EU8      -0.589800
      2 C63         15.7840    31.3970    24.3090 c3         1 EU8       0.091400
      3 C53         16.4100    31.4490    25.6980 c6         1 EU8       0.125100
      4 C4          15.7670    30.4170    26.6590 c6         1 EU8       0.160100
      5 O4          16.5750    29.3020    26.9950 os         1 EU8      -0.565500
      6 C3          15.1940    31.1420    27.8760 c6         1 EU8       0.138100
      7 O3          14.5930    30.2330    28.7970 os         1 EU8      -0.545500
      8 C2          14.2710    32.2480    27.3560 c6         1 EU8       0.061100
      9 O2          13.5820    32.9110    28.3730 oh         1 EU8      -0.596800
     10 O53         16.3770    32.7580    26.2300 os         1 EU8      -0.360600
     11 C13         15.1310    33.2890    26.5770 c6         1 EU8       0.361900
     12 O62         15.4730    34.3890    27.3520 os         1 EU8      -0.376600
     13 C62         14.5800    35.4850    27.3510 c3         1 EU8       0.132400
     14 C52         15.2080    36.8030    26.9190 c6         1 EU8       0.121100
     15 C41         15.7270    36.8530    25.4790 c6         1 EU8       0.156100
     16 O41         15.8200    38.2140    25.0670 os         1 EU8      -0.526500
     17 C31         17.1250    36.2550    25.3530 c6         1 EU8       0.208100
     18 O31         17.6350    36.4770    24.0490 os         1 EU8      -0.540500
     19 C21         18.0640    36.8990    26.3600 c6         1 EU8       0.078100
     20 O21         19.2990    36.2350    26.2960 oh         1 EU8      -0.588800
     21 O52         16.1690    37.2950    27.8360 os         1 EU8      -0.400600
     22 C12         17.4650    36.7670    27.7690 c6         1 EU8       0.319900
     23 O61         18.2410    37.4000    28.7330 os         1 EU8      -0.384600
     24 C61         18.2800    38.8130    28.7610 c3         1 EU8       0.102400
     25 C51         17.2820    39.4050    29.7640 c6         1 EU8       0.115100
     26 O51         17.2330    38.7030    30.9880 os         1 EU8      -0.377600
     27 C11         18.3600    38.8370    31.8040 c6         1 EU8       0.385900
     28 O6          18.1300    38.0510    32.9280 os         1 EU8      -0.517500
     29 C42         17.5540    40.9020    29.9560 c6         1 EU8       0.168100
     30 O42         16.3930    41.5620    30.4290 os         1 EU8      -0.499500
     31 C32         18.7040    41.1200    30.9380 c6         1 EU8       0.191100
     32 O32         18.8140    42.4980    31.2270 os         1 EU8      -0.501500
     33 C22         18.5700    40.2940    32.2150 c6         1 EU8       0.167100
     34 O22         17.4840    40.7630    32.9810 os         1 EU8      -0.491500
     35 O43         20.3640    43.1680    29.4180 o          1 EU8      -0.747533
     36 S           20.2460    43.2410    30.8770 s6         1 EU8       1.511300
     37 O1          21.2760    42.4780    31.5860 o          1 EU8      -0.747533
     38 O33         19.9920    44.5780    31.4060 o          1 EU8      -0.747533
     39 S1          17.7120    41.2460    34.5440 s6         1 EU8       1.514300
     40 O11         17.6940    40.0280    35.3530 o          1 EU8      -0.745200
     41 O23         18.9990    41.9450    34.5680 o          1 EU8      -0.745200
     42 O34         16.5440    42.1060    34.7220 o          1 EU8      -0.745200
     43 O44         16.2300    34.7220    22.9860 o          1 EU8      -0.738867
     44 S2          17.6080    35.2280    22.9780 s6         1 EU8       1.513300
     45 O12         18.5910    34.2630    23.4760 o          1 EU8      -0.738867
     46 O35         17.9940    35.9180    21.7500 o          1 EU8      -0.738867
     47 S3          14.6020    38.8390    24.1490 s6         1 EU8       1.509300
     48 O13         13.3700    38.5720    24.8990 o          1 EU8      -0.735533
     49 O24         14.9970    40.2430    24.0990 o          1 EU8      -0.735533
     50 O36         14.6690    38.1410    22.8640 o          1 EU8      -0.735533
     51 O45         20.4120    37.0930    33.0830 o          1 EU8      -0.729867
     52 S4          19.0160    36.6560    33.1210 s6         1 EU8       1.507300
     53 O14         18.6340    35.7880    32.0080 o          1 EU8      -0.729867
     54 O37         18.5400    36.2290    34.4320 o          1 EU8      -0.729867
     55 S5          15.5000    42.3890    29.3180 s6         1 EU8       1.496300
     56 O15         14.4220    42.8970    30.1600 o          1 EU8      -0.735200
     57 O25         15.0840    41.3950    28.3230 o          1 EU8      -0.735200
     58 O38         16.4010    43.4130    28.7830 o          1 EU8      -0.735200
     59 O46         13.1370    28.5340    29.6410 o          1 EU8      -0.744200
     60 S6          13.1240    29.5330    28.5800 s6         1 EU8       1.513300
     61 O26         13.0920    28.9950    27.2200 o          1 EU8      -0.744200
     62 O39         12.1420    30.6160    28.7940 o          1 EU8      -0.744200
     63 S7          18.1210    29.4150    27.5490 s6         1 EU8       1.503300
     64 O71         18.9460    29.5640    26.3450 o          1 EU8      -0.723533
     65 O72         18.1600    30.5720    28.4470 o          1 EU8      -0.723533
     66 O73         18.2590    28.1220    28.2120 o          1 EU8      -0.723533
     67 H633        15.7280    30.0830    22.8830 ho         1 EU8       0.352000
     68 H631        16.2260    32.1880    23.6930 h1         1 EU8       0.042200
     69 H632        14.7040    31.5940    24.3670 h1         1 EU8       0.042200
     70 H531        17.4710    31.2330    25.5810 h1         1 EU8       0.127700
     71 H41         14.9290    29.9450    26.1420 h1         1 EU8       0.067700
     72 H31         15.9910    31.5990    28.4660 h1         1 EU8       0.145700
     73 H21         13.5690    31.8010    26.6340 h1         1 EU8       0.004700
     74 H22         12.8990    32.2890    28.6830 ho         1 EU8       0.435000
     75 H131        14.5780    33.6190    25.6820 h2         1 EU8       0.022700
     76 H621        14.1870    35.6150    28.3620 h1         1 EU8       0.038700
     77 H622        13.7180    35.3010    26.7010 h1         1 EU8       0.038700
     78 H521        14.3790    37.5130    26.9730 h1         1 EU8       0.104700
     79 H411        15.0420    36.2900    24.8360 h1         1 EU8       0.055700
     80 H311        17.0710    35.1860    25.5750 h1         1 EU8       0.073700
     81 H211        18.1730    37.9620    26.1030 h1         1 EU8       0.062700
     82 H212        19.9090    36.6690    26.9010 ho         1 EU8       0.386000
     83 H121        17.4880    35.7090    28.0550 h2         1 EU8       0.099700
     84 H611        19.3110    39.0840    29.0040 h1         1 EU8       0.036700
     85 H612        18.0680    39.2650    27.7870 h1         1 EU8       0.036700
     86 H511        16.2850    39.3060    29.3400 h1         1 EU8       0.118700
     87 H111        19.2710    38.5180    31.2740 h2         1 EU8       0.009700
     88 H421        17.8670    41.3270    28.9940 h1         1 EU8       0.044700
     89 H321        19.6030    40.7500    30.4280 h1         1 EU8       0.011700
     90 H221        19.5130    40.3600    32.7680 h1         1 EU8       0.054700
@<TRIPOS>BOND
     1     1     2 1   
     2     1    67 1   
     3     2     3 1   
     4     2    68 1   
     5     2    69 1   
     6     3     4 1   
     7     3    10 1   
     8     3    70 1   
     9     4     5 1   
    10     4     6 1   
    11     4    71 1   
    12     5    63 1   
    13     6     7 1   
    14     6     8 1   
    15     6    72 1   
    16     7    60 1   
    17     8     9 1   
    18     8    11 1   
    19     8    73 1   
    20     9    74 1   
    21    10    11 1   
    22    11    12 1   
    23    11    75 1   
    24    12    13 1   
    25    13    14 1   
    26    13    76 1   
    27    13    77 1   
    28    14    15 1   
    29    14    21 1   
    30    14    78 1   
    31    15    16 1   
    32    15    17 1   
    33    15    79 1   
    34    16    47 1   
    35    17    18 1   
    36    17    19 1   
    37    17    80 1   
    38    18    44 1   
    39    19    20 1   
    40    19    22 1   
    41    19    81 1   
    42    20    82 1   
    43    21    22 1   
    44    22    23 1   
    45    22    83 1   
    46    23    24 1   
    47    24    25 1   
    48    24    84 1   
    49    24    85 1   
    50    25    26 1   
    51    25    29 1   
    52    25    86 1   
    53    26    27 1   
    54    27    28 1   
    55    27    33 1   
    56    27    87 1   
    57    28    52 1   
    58    29    30 1   
    59    29    31 1   
    60    29    88 1   
    61    30    55 1   
    62    31    32 1   
    63    31    33 1   
    64    31    89 1   
    65    32    36 1   
    66    33    34 1   
    67    33    90 1   
    68    34    39 1   
    69    35    36 1   
    70    36    37 1   
    71    36    38 1   
    72    39    40 1   
    73    39    41 1   
    74    39    42 1   
    75    43    44 1   
    76    44    45 1   
    77    44    46 1   
    78    47    48 1   
    79    47    49 1   
    80    47    50 1   
    81    51    52 1   
    82    52    53 1   
    83    52    54 1   
    84    55    56 1   
    85    55    57 1   
    86    55    58 1   
    87    59    60 1   
    88    60    61 1   
    89    60    62 1   
    90    63    64 1   
    91    63    65 1   
    92    63    66 1   
@<TRIPOS>SUBSTRUCTURE
     1 EU8         1 TEMP              0 ****  ****    0 ROOT
