@<TRIPOS>MOLECULE
EU8
   90    92     1     0     0
SMALL
No Charge or Current Charge


@<TRIPOS>ATOM
      1 O63         16.0580    29.8830    23.7310 oh         1 EU8      -0.712000
      2 C63         15.9920    31.2040    24.2960 c3         1 EU8       0.114600
      3 C53         16.6380    31.2910    25.7250 c6         1 EU8       0.148300
      4 C4          16.0140    30.3490    26.8120 c6         1 EU8       0.183300
      5 O4          17.0460    29.8930    27.7270 os         1 EU8      -0.588700
      6 C3          14.9100    31.0880    27.6580 c6         1 EU8       0.161300
      7 O3          14.0490    30.0630    28.2690 os         1 EU8      -0.568700
      8 C2          14.2330    32.2840    26.8870 c6         1 EU8       0.084300
      9 O2          13.2000    32.9480    27.6570 oh         1 EU8      -0.719000
     10 O53         16.6240    32.6610    26.1830 os         1 EU8      -0.407000
     11 C13         15.3360    33.2960    26.3340 c6         1 EU8       0.408300
     12 O62         15.5770    34.4160    27.2150 os         1 EU8      -0.423000
     13 C62         14.6120    35.4860    27.2310 c3         1 EU8       0.155600
     14 C52         15.2310    36.8710    26.8380 c6         1 EU8       0.144300
     15 C41         15.8680    36.9580    25.4060 c6         1 EU8       0.179300
     16 O41         15.9340    38.3520    25.0030 os         1 EU8      -0.549700
     17 C31         17.3060    36.3120    25.4100 c6         1 EU8       0.231300
     18 O31         17.9450    36.4450    24.1150 os         1 EU8      -0.563700
     19 C21         18.1680    36.9760    26.5370 c6         1 EU8       0.101300
     20 O21         19.5280    36.4640    26.5750 oh         1 EU8      -0.711000
     21 O52         16.1340    37.3610    27.8710 os         1 EU8      -0.447000
     22 C12         17.4400    36.7550    27.9050 c6         1 EU8       0.366300
     23 O61         18.2040    37.3040    29.0060 os         1 EU8      -0.431000
     24 C61         18.3230    38.7390    29.1330 c3         1 EU8       0.125600
     25 C51         17.2880    39.2810    30.1830 c6         1 EU8       0.138300
     26 O51         17.5660    38.7270    31.5030 os         1 EU8      -0.424000
     27 C11         18.7970    39.1660    32.1270 c6         1 EU8       0.432300
     28 O6          19.0030    38.4530    33.3490 os         1 EU8      -0.540700
     29 C42         17.2380    40.8440    30.2400 c6         1 EU8       0.191300
     30 O42         16.0390    41.2850    30.9260 os         1 EU8      -0.522700
     31 C32         18.5500    41.3540    30.9450 c6         1 EU8       0.214300
     32 O32         18.5950    42.8000    30.9880 os         1 EU8      -0.524700
     33 C22         18.7580    40.7190    32.3680 c6         1 EU8       0.190300
     34 O22         17.7150    41.0970    33.3150 os         1 EU8      -0.514700
     35 O43         19.8110    43.1650    28.8890 o          1 EU8      -0.747533
     36 S           19.8860    43.5460    30.3070 s6         1 EU8       1.511300
     37 O1          21.0430    42.9790    31.0140 o          1 EU8      -0.747533
     38 O33         19.6590    44.9760    30.5620 o          1 EU8      -0.747533
     39 S1          18.1340    41.8070    34.7380 s6         1 EU8       1.514300
     40 O11         19.3450    41.1030    35.1850 o          1 EU8      -0.745200
     41 O23         18.3640    43.2170    34.3910 o          1 EU8      -0.745200
     42 O34         16.9620    41.5930    35.6020 o          1 EU8      -0.745200
     43 O44         16.5060    34.6770    23.1830 o          1 EU8      -0.738867
     44 S2          17.8900    35.1620    23.0930 s6         1 EU8       1.513300
     45 O12         18.8850    34.2270    23.6360 o          1 EU8      -0.738867
     46 O35         18.2530    35.7300    21.7860 o          1 EU8      -0.738867
     47 S3          14.7600    38.9430    24.0150 s6         1 EU8       1.509300
     48 O13         13.5050    38.4520    24.6020 o          1 EU8      -0.735533
     49 O24         14.9350    40.4010    24.0890 o          1 EU8      -0.735533
     50 O36         15.0680    38.3680    22.6990 o          1 EU8      -0.735533
     51 O45         20.4910    36.8740    32.1770 o          1 EU8      -0.729867
     52 S4          19.5040    36.8980    33.2660 s6         1 EU8       1.507300
     53 O14         18.2830    36.1240    32.9960 o          1 EU8      -0.729867
     54 O37         20.0790    36.6460    34.5970 o          1 EU8      -0.729867
     55 S5          14.7620    41.8000    30.0310 s6         1 EU8       1.496300
     56 O15         13.7120    42.0680    31.0240 o          1 EU8      -0.735200
     57 O25         14.4710    40.6710    29.1360 o          1 EU8      -0.735200
     58 O38         15.2570    42.9980    29.3380 o          1 EU8      -0.735200
     59 O46         12.1460    28.5350    28.5500 o          1 EU8      -0.744200
     60 S6          12.4880    29.7720    27.8360 s6         1 EU8       1.513300
     61 O26         12.5330    29.6380    26.3760 o          1 EU8      -0.744200
     62 O39         11.7620    30.9590    28.3090 o          1 EU8      -0.744200
     63 S7          17.7700    28.4390    27.4700 s6         1 EU8       1.503300
     64 O71         16.6600    27.4820    27.3680 o          1 EU8      -0.723533
     65 O72         18.5190    28.6290    26.2210 o          1 EU8      -0.723533
     66 O73         18.6180    28.2570    28.6580 o          1 EU8      -0.723533
     67 H633        15.6870    29.9350    22.8210 ho         1 EU8       0.451000
     68 H631        16.5280    31.9090    23.6470 h1         1 EU8       0.042200
     69 H632        14.9470    31.5320    24.3300 h1         1 EU8       0.042200
     70 H531        17.6900    31.0020    25.5960 h1         1 EU8       0.127700
     71 H41         15.5470    29.4870    26.3130 h1         1 EU8       0.067700
     72 H31         15.4580    31.5650    28.4850 h1         1 EU8       0.145700
     73 H21         13.7470    31.8600    26.0000 h1         1 EU8       0.004700
     74 H22         12.5700    32.2260    27.9660 ho         1 EU8       0.534000
     75 H131        15.0100    33.6770    25.3560 h2         1 EU8       0.022700
     76 H621        14.1720    35.5780    28.2330 h1         1 EU8       0.038700
     77 H622        13.7900    35.2830    26.5310 h1         1 EU8       0.038700
     78 H521        14.3710    37.5550    26.8420 h1         1 EU8       0.104700
     79 H411        15.2380    36.4010    24.6970 h1         1 EU8       0.055700
     80 H311        17.2320    35.2440    25.6520 h1         1 EU8       0.073700
     81 H211        18.1940    38.0560    26.3350 h1         1 EU8       0.062700
     82 H212        19.9070    36.7430    27.4410 ho         1 EU8       0.485000
     83 H121        17.3450    35.6730    28.0770 h2         1 EU8       0.099700
     84 H611        19.3430    39.0030    29.4340 h1         1 EU8       0.036700
     85 H612        18.1370    39.2380    28.1730 h1         1 EU8       0.036700
     86 H511        16.2980    38.9240    29.8690 h1         1 EU8       0.118700
     87 H111        19.6420    38.9710    31.4530 h2         1 EU8       0.009700
     88 H421        17.2350    41.2380    29.2130 h1         1 EU8       0.044700
     89 H321        19.3890    41.0060    30.3260 h1         1 EU8       0.011700
     90 H221        19.7430    41.0390    32.7350 h1         1 EU8       0.054700
@<TRIPOS>BOND
     1     1     2 1   
     2     1    67 1   
     3     2     3 1   
     4     2    68 1   
     5     2    69 1   
     6     3     4 1   
     7     3    10 1   
     8     3    70 1   
     9     4     5 1   
    10     4     6 1   
    11     4    71 1   
    12     5    63 1   
    13     6     7 1   
    14     6     8 1   
    15     6    72 1   
    16     7    60 1   
    17     8     9 1   
    18     8    11 1   
    19     8    73 1   
    20     9    74 1   
    21    10    11 1   
    22    11    12 1   
    23    11    75 1   
    24    12    13 1   
    25    13    14 1   
    26    13    76 1   
    27    13    77 1   
    28    14    15 1   
    29    14    21 1   
    30    14    78 1   
    31    15    16 1   
    32    15    17 1   
    33    15    79 1   
    34    16    47 1   
    35    17    18 1   
    36    17    19 1   
    37    17    80 1   
    38    18    44 1   
    39    19    20 1   
    40    19    22 1   
    41    19    81 1   
    42    20    82 1   
    43    21    22 1   
    44    22    23 1   
    45    22    83 1   
    46    23    24 1   
    47    24    25 1   
    48    24    84 1   
    49    24    85 1   
    50    25    26 1   
    51    25    29 1   
    52    25    86 1   
    53    26    27 1   
    54    27    28 1   
    55    27    33 1   
    56    27    87 1   
    57    28    52 1   
    58    29    30 1   
    59    29    31 1   
    60    29    88 1   
    61    30    55 1   
    62    31    32 1   
    63    31    33 1   
    64    31    89 1   
    65    32    36 1   
    66    33    34 1   
    67    33    90 1   
    68    34    39 1   
    69    35    36 1   
    70    36    37 1   
    71    36    38 1   
    72    39    40 1   
    73    39    41 1   
    74    39    42 1   
    75    43    44 1   
    76    44    45 1   
    77    44    46 1   
    78    47    48 1   
    79    47    49 1   
    80    47    50 1   
    81    51    52 1   
    82    52    53 1   
    83    52    54 1   
    84    55    56 1   
    85    55    57 1   
    86    55    58 1   
    87    59    60 1   
    88    60    61 1   
    89    60    62 1   
    90    63    64 1   
    91    63    65 1   
    92    63    66 1   
@<TRIPOS>SUBSTRUCTURE
     1 EU8         1 TEMP              0 ****  ****    0 ROOT
