@<TRIPOS>MOLECULE
EUA
  107   112     1     0     0
SMALL
abcg2


@<TRIPOS>ATOM
      1 C02         23.7630   -17.2680    27.5220 c          1 EUA       0.587100
      2 C04         25.4170   -19.0020    27.1550 c3         1 EUA       0.029700
      3 C05         25.6830   -20.0870    26.1010 c3         1 EUA      -0.033100
      4 C06         24.4700   -20.9400    25.8580 ca         1 EUA      -0.111300
      5 C07         24.0500   -21.8580    26.8180 ca         1 EUA      -0.079500
      6 C08         22.9190   -22.6280    26.6240 ca         1 EUA      -0.141500
      7 C09         22.1680   -22.5110    25.4520 ca         1 EUA      -0.016000
      8 C11         19.9590   -23.1810    24.5310 c          1 EUA       0.609100
      9 C13         22.5850   -21.6070    24.4780 ca         1 EUA      -0.141500
     10 C14         23.7210   -20.8350    24.6920 ca         1 EUA      -0.079500
     11 C15         26.7130   -18.2650    27.5120 c          1 EUA       0.586100
     12 C17         28.7550   -18.4440    28.8860 c3         1 EUA       0.147300
     13 C18         28.6490   -17.8820    30.2810 ca         1 EUA      -0.121300
     14 C19         27.8520   -16.7700    30.5400 ca         1 EUA      -0.097500
     15 C20         27.7400   -16.2670    31.8270 ca         1 EUA      -0.100000
     16 C21         28.4210   -16.8520    32.8920 ca         1 EUA      -0.079300
     17 C22         28.3110   -16.2780    34.2820 c3         1 EUA       0.196100
     18 C24         29.2160   -17.9650    32.6310 ca         1 EUA      -0.100000
     19 C25         29.3260   -18.4710    31.3430 ca         1 EUA      -0.097500
     20 C27         22.7570   -16.3230    26.8640 c3         1 EUA       0.148500
     21 C28         21.6180   -17.0910    26.1700 c3         1 EUA      -0.012100
     22 C29         20.8520   -18.0000    27.0870 ca         1 EUA      -0.116300
     23 C30         21.1040   -19.3700    27.1160 ca         1 EUA      -0.067000
     24 C31         20.3890   -20.2130    27.9470 ca         1 EUA      -0.154000
     25 C32         19.3950   -19.7130    28.7920 ca         1 EUA      -0.020000
     26 C34         17.5590   -20.4720    30.2900 c          1 EUA       0.607100
     27 C35         16.9420   -21.7620    30.7760 c3         1 EUA      -0.163400
     28 C36         15.9530   -22.3350    29.7520 c3         1 EUA       0.180800
     29 C38         16.4720   -21.8060    27.4320 c6         1 EUA       0.169800
     30 C39         17.3500   -22.2260    26.2670 c6         1 EUA       0.176300
     31 C41         17.5170   -23.9870    24.5660 c3         1 EUA       0.196800
     32 C42         19.0060   -24.3550    24.5340 c3         1 EUA      -0.203400
     33 C43         17.0680   -24.5090    26.8990 c6         1 EUA       0.176300
     34 C44         16.2170   -24.0800    28.0810 c6         1 EUA       0.169800
     35 C46         19.1450   -18.3400    28.7860 ca         1 EUA      -0.154000
     36 C47         19.8650   -17.5110    27.9370 ca         1 EUA      -0.067000
     37 C50         24.3080   -13.6300    27.9330 ca         1 EUA      -0.309500
     38 C51         24.8540   -13.6590    29.2110 ca         1 EUA      -0.013500
     39 C52         26.2280   -13.5670    29.3580 ca         1 EUA      -0.125500
     40 C53         27.0450   -13.4580    28.2390 ca         1 EUA      -0.049000
     41 C54         26.4890   -13.4290    26.9680 ca         1 EUA      -0.125500
     42 C55         25.1130   -13.5110    26.8070 ca         1 EUA      -0.013500
     43 N03         24.4220   -18.0790    26.6820 ns         1 EUA      -0.472900
     44 N10         21.0590   -23.3540    25.3120 ns         1 EUA      -0.155000
     45 N16         27.4850   -18.9260    28.3890 ns         1 EUA      -0.498900
     46 N23         28.1590   -17.3170    35.2880 n8         1 EUA      -1.000200
     47 N33         18.7030   -20.6420    29.5750 ns         1 EUA      -0.138000
     48 N37         16.6060   -22.7540    28.5230 n3         1 EUA      -0.758600
     49 N40         16.9600   -23.5460    25.8240 n3         1 EUA      -0.744600
     50 N48         22.2300   -15.4110    27.8630 n7         1 EUA      -0.862300
     51 O01         23.9160   -17.2970    28.7330 o          1 EUA      -0.603100
     52 O12         19.7720   -22.1950    23.8420 o          1 EUA      -0.575100
     53 O26         27.0060   -17.1950    27.0060 o          1 EUA      -0.599100
     54 O45         17.0360   -19.3900    30.4950 o          1 EUA      -0.585100
     55 O56         21.9040   -13.1790    28.8890 o          1 EUA      -0.537500
     56 O57         22.1980   -13.3910    26.4020 o          1 EUA      -0.537500
     57 S49         22.5510   -13.8020    27.7490 sy         1 EUA       1.155600
     58 H041        25.0340   -19.4890    28.0560 h1         1 EUA       0.086700
     59 H051        26.5090   -20.7070    26.4540 hc         1 EUA       0.061700
     60 H052        26.0150   -19.6180    25.1710 hc         1 EUA       0.061700
     61 H071        24.6130   -21.9730    27.7360 ha         1 EUA       0.112000
     62 H081        22.6130   -23.3320    27.3900 ha         1 EUA       0.128500
     63 H131        22.0440   -21.4990    23.5510 ha         1 EUA       0.128500
     64 H141        24.0280   -20.1390    23.9210 ha         1 EUA       0.112000
     65 H172        29.4700   -19.2680    28.8700 h1         1 EUA       0.062700
     66 H171        29.1240   -17.6880    28.1940 h1         1 EUA       0.062700
     67 H191        27.3110   -16.2910    29.7320 ha         1 EUA       0.118000
     68 H201        27.1070   -15.4050    32.0080 ha         1 EUA       0.119000
     69 H221        29.2310   -15.7310    34.5080 h1         1 EUA       0.035200
     70 H222        27.5070   -15.5300    34.2890 h1         1 EUA       0.035200
     71 H241        29.7470   -18.4450    33.4420 ha         1 EUA       0.119000
     72 H251        29.9480   -19.3410    31.1630 ha         1 EUA       0.118000
     73 H271        23.2830   -15.7610    26.0840 h1         1 EUA       0.073700
     74 H281        20.9550   -16.3430    25.7330 hc         1 EUA       0.060700
     75 H282        22.0310   -17.6620    25.3370 hc         1 EUA       0.060700
     76 H301        21.8580   -19.7950    26.4660 ha         1 EUA       0.119500
     77 H311        20.5980   -21.2760    27.9300 ha         1 EUA       0.126500
     78 H352        16.4100   -21.5540    31.7050 hc         1 EUA       0.068200
     79 H351        17.7030   -22.5160    30.9860 hc         1 EUA       0.068200
     80 H362        15.1550   -21.6060    29.5600 h1         1 EUA       0.045700
     81 H361        15.4690   -23.1950    30.2180 h1         1 EUA       0.045700
     82 H381        16.7670   -20.8090    27.7610 h1         1 EUA       0.042950
     83 H382        15.4270   -21.7320    27.0880 h1         1 EUA       0.042950
     84 H392        18.4040   -22.1730    26.5890 h1         1 EUA       0.038200
     85 H391        17.2230   -21.5170    25.4450 h1         1 EUA       0.038200
     86 H411        17.3190   -23.2220    23.8120 h1         1 EUA       0.065200
     87 H412        16.9620   -24.8760    24.2550 h1         1 EUA       0.065200
     88 H421        19.1880   -24.8870    23.5950 hc         1 EUA       0.062700
     89 H422        19.2440   -25.0690    25.3250 hc         1 EUA       0.062700
     90 H431        16.7230   -25.4830    26.5430 h1         1 EUA       0.038200
     91 H432        18.1050   -24.6390    27.2480 h1         1 EUA       0.038200
     92 H441        15.1530   -24.1240    27.7950 h1         1 EUA       0.042950
     93 H442        16.3650   -24.7890    28.8980 h1         1 EUA       0.042950
     94 H461        18.3910   -17.9110    29.4240 ha         1 EUA       0.126500
     95 H471        19.6380   -16.4530    27.9360 ha         1 EUA       0.119500
     96 H511        24.2220   -13.7470    30.0850 ha         1 EUA       0.131000
     97 H521        26.6610   -13.5800    30.3490 ha         1 EUA       0.117000
     98 H531        28.1180   -13.3910    28.3610 ha         1 EUA       0.116000
     99 H541        27.1240   -13.3380    26.0980 ha         1 EUA       0.117000
    100 H551        24.6820   -13.4760    25.8160 ha         1 EUA       0.131000
    101 H031        24.3630   -17.9130    25.6890 hn         1 EUA       0.325500
    102 H101        21.0540   -24.1620    25.9170 hn         1 EUA       0.150000
    103 H161        27.1210   -19.7660    28.8130 hn         1 EUA       0.314500
    104 H1          28.1980   -16.9010    36.2090 hn         1 EUA       0.398000
    105 H232        27.2400   -17.7340    35.2070 hn         1 EUA       0.398000
    106 H331        18.9730   -21.6030    29.4240 hn         1 EUA       0.156000
    107 H481        22.3210   -15.7580    28.8150 hn         1 EUA       0.511000
@<TRIPOS>BOND
     1     1    20 1   
     2     1    43 1   
     3     1    51 2   
     4     2     3 1   
     5     2    11 1   
     6     2    43 1   
     7     2    58 1   
     8     3     4 1   
     9     3    59 1   
    10     3    60 1   
    11     4     5 ar  
    12     4    10 ar  
    13     5     6 ar  
    14     5    61 1   
    15     6     7 ar  
    16     6    62 1   
    17     7     9 ar  
    18     7    44 1   
    19     8    32 1   
    20     8    44 1   
    21     8    52 2   
    22     9    10 ar  
    23     9    63 1   
    24    10    64 1   
    25    11    45 1   
    26    11    53 2   
    27    12    13 1   
    28    12    45 1   
    29    12    65 1   
    30    12    66 1   
    31    13    14 ar  
    32    13    19 ar  
    33    14    15 ar  
    34    14    67 1   
    35    15    16 ar  
    36    15    68 1   
    37    16    17 1   
    38    16    18 ar  
    39    17    46 1   
    40    17    69 1   
    41    17    70 1   
    42    18    19 ar  
    43    18    71 1   
    44    19    72 1   
    45    20    21 1   
    46    20    50 1   
    47    20    73 1   
    48    21    22 1   
    49    21    74 1   
    50    21    75 1   
    51    22    23 ar  
    52    22    36 ar  
    53    23    24 ar  
    54    23    76 1   
    55    24    25 ar  
    56    24    77 1   
    57    25    35 ar  
    58    25    47 1   
    59    26    27 1   
    60    26    47 1   
    61    26    54 2   
    62    27    28 1   
    63    27    78 1   
    64    27    79 1   
    65    28    48 1   
    66    28    80 1   
    67    28    81 1   
    68    29    30 1   
    69    29    48 1   
    70    29    82 1   
    71    29    83 1   
    72    30    49 1   
    73    30    84 1   
    74    30    85 1   
    75    31    32 1   
    76    31    49 1   
    77    31    86 1   
    78    31    87 1   
    79    32    88 1   
    80    32    89 1   
    81    33    34 1   
    82    33    49 1   
    83    33    90 1   
    84    33    91 1   
    85    34    48 1   
    86    34    92 1   
    87    34    93 1   
    88    35    36 ar  
    89    35    94 1   
    90    36    95 1   
    91    37    38 ar  
    92    37    42 ar  
    93    37    57 1   
    94    38    39 ar  
    95    38    96 1   
    96    39    40 ar  
    97    39    97 1   
    98    40    41 ar  
    99    40    98 1   
   100    41    42 ar  
   101    41    99 1   
   102    42   100 1   
   103    43   101 1   
   104    44   102 1   
   105    45   103 1   
   106    46   104 1   
   107    46   105 1   
   108    47   106 1   
   109    50    57 1   
   110    50   107 1   
   111    55    57 2   
   112    56    57 2   
@<TRIPOS>SUBSTRUCTURE
     1 EUA         1 TEMP              0 ****  ****    0 ROOT
