@<TRIPOS>MOLECULE
EUA
  107   112     1     0     0
SMALL
No Charge or Current Charge


@<TRIPOS>ATOM
      1 C02         23.2250   -16.8940    26.8730 c          1 EUA       0.587100
      2 C04         25.5070   -17.9360    27.2260 c3         1 EUA       0.029700
      3 C05         25.7380   -19.3470    26.6280 c3         1 EUA      -0.033100
      4 C06         24.5030   -20.2470    26.5930 ca         1 EUA      -0.111300
      5 C07         23.8980   -20.6800    27.7880 ca         1 EUA      -0.079500
      6 C08         22.8380   -21.6050    27.7550 ca         1 EUA      -0.141500
      7 C09         22.3640   -22.1180    26.5330 ca         1 EUA      -0.016000
      8 C11         20.8090   -23.9430    25.5970 c          1 EUA       0.609100
      9 C13         22.9480   -21.6520    25.3340 ca         1 EUA      -0.141500
     10 C14         24.0070   -20.7260    25.3660 ca         1 EUA      -0.079500
     11 C15         26.8380   -17.1380    27.2910 c          1 EUA       0.586100
     12 C17         28.9660   -16.8560    28.5880 c3         1 EUA       0.147300
     13 C18         29.5140   -17.2920    29.9360 ca         1 EUA      -0.121300
     14 C19         29.1670   -16.5880    31.1050 ca         1 EUA      -0.097500
     15 C20         29.6690   -16.9940    32.3540 ca         1 EUA      -0.100000
     16 C21         30.5240   -18.1100    32.4490 ca         1 EUA      -0.079300
     17 C22         31.0770   -18.5450    33.8010 c3         1 EUA       0.196100
     18 C24         30.8680   -18.8150    31.2800 ca         1 EUA      -0.100000
     19 C25         30.3650   -18.4090    30.0310 ca         1 EUA      -0.097500
     20 C27         22.3500   -16.0510    25.8830 c3         1 EUA       0.148500
     21 C28         21.3330   -16.9540    25.1380 c3         1 EUA      -0.012100
     22 C29         20.3030   -17.6240    26.0450 ca         1 EUA      -0.116300
     23 C30         20.5800   -18.8800    26.6140 ca         1 EUA      -0.067000
     24 C31         19.6480   -19.4950    27.4620 ca         1 EUA      -0.154000
     25 C32         18.4160   -18.8780    27.7350 ca         1 EUA      -0.020000
     26 C34         16.1240   -19.5090    28.6730 c          1 EUA       0.607100
     27 C35         15.5340   -20.5460    29.6200 c3         1 EUA      -0.163400
     28 C36         15.0650   -21.8060    28.8660 c3         1 EUA       0.180800
     29 C38         16.4360   -22.1520    26.7870 c6         1 EUA       0.169800
     30 C39         17.6710   -22.8950    26.1820 c6         1 EUA       0.176300
     31 C41         18.5450   -25.1760    25.5630 c3         1 EUA       0.196800
     32 C42         19.9820   -25.1160    26.1300 c3         1 EUA      -0.203400
     33 C43         17.2220   -24.8030    27.6720 c6         1 EUA       0.176300
     34 C44         16.0060   -24.0350    28.2840 c6         1 EUA       0.169800
     35 C46         18.1320   -17.6220    27.1600 ca         1 EUA      -0.154000
     36 C47         19.0730   -16.9980    26.3220 ca         1 EUA      -0.067000
     37 C50         23.3420   -14.1000    28.4480 ca         1 EUA      -0.309500
     38 C51         22.6430   -14.2510    29.6640 ca         1 EUA      -0.013500
     39 C52         23.3230   -14.6870    30.8150 ca         1 EUA      -0.125500
     40 C53         24.6990   -14.9660    30.7610 ca         1 EUA      -0.049000
     41 C54         25.3990   -14.8040    29.5540 ca         1 EUA      -0.125500
     42 C55         24.7270   -14.3710    28.3990 ca         1 EUA      -0.013500
     43 N03         24.5020   -17.1860    26.4390 ns         1 EUA      -0.472900
     44 N10         21.3670   -23.1350    26.5830 ns         1 EUA      -0.155000
     45 N16         27.6780   -17.4890    28.3240 ns         1 EUA      -0.498900
     46 N23         30.2540   -19.6060    34.4100 n8         1 EUA      -1.000200
     47 N33         17.5060   -19.5680    28.5720 ns         1 EUA      -0.138000
     48 N37         16.1750   -22.5480    28.2150 n3         1 EUA      -0.758600
     49 N40         17.5110   -24.3770    26.2660 n3         1 EUA      -0.744600
     50 N48         21.6250   -14.9150    26.5360 n7         1 EUA      -0.862300
     51 O01         22.8310   -17.2270    27.9840 o          1 EUA      -0.603100
     52 O12         21.0070   -23.8040    24.3970 o          1 EUA      -0.575100
     53 O26         27.1300   -16.2520    26.4980 o          1 EUA      -0.599100
     54 O45         15.4160   -18.7220    28.0530 o          1 EUA      -0.585100
     55 O56         21.4440   -12.5690    27.3380 o          1 EUA      -0.537500
     56 O57         23.4310   -13.2890    25.8950 o          1 EUA      -0.537500
     57 S49         22.4750   -13.5440    26.9760 sy         1 EUA       1.155600
     58 H041        25.1550   -18.0430    28.2600 h1         1 EUA       0.086700
     59 H051        26.5200   -19.8500    27.2100 hc         1 EUA       0.061700
     60 H052        26.1530   -19.2320    25.6190 hc         1 EUA       0.061700
     61 H071        24.2700   -20.3260    28.7470 ha         1 EUA       0.112000
     62 H081        22.4070   -21.9490    28.6930 ha         1 EUA       0.128500
     63 H131        22.6170   -22.0110    24.3650 ha         1 EUA       0.128500
     64 H141        24.4620   -20.4060    24.4320 ha         1 EUA       0.112000
     65 H172        29.6690   -17.1290    27.7890 h1         1 EUA       0.062700
     66 H171        28.8430   -15.7650    28.5720 h1         1 EUA       0.062700
     67 H191        28.5070   -15.7250    31.0480 ha         1 EUA       0.118000
     68 H201        29.3940   -16.4390    33.2490 ha         1 EUA       0.119000
     69 H221        32.1040   -18.9180    33.6790 h1         1 EUA       0.035200
     70 H222        31.1070   -17.6840    34.4840 h1         1 EUA       0.035200
     71 H241        31.5240   -19.6800    31.3400 ha         1 EUA       0.119000
     72 H251        30.6380   -18.9660    29.1360 ha         1 EUA       0.118000
     73 H271        23.0260   -15.6620    25.1100 h1         1 EUA       0.073700
     74 H281        20.8230   -16.3510    24.3780 hc         1 EUA       0.060700
     75 H282        21.8890   -17.7190    24.5810 hc         1 EUA       0.060700
     76 H301        21.5260   -19.3730    26.4090 ha         1 EUA       0.119500
     77 H311        19.8820   -20.4650    27.8960 ha         1 EUA       0.126500
     78 H352        14.6690   -20.1120    30.1330 hc         1 EUA       0.068200
     79 H351        16.2890   -20.8650    30.3480 hc         1 EUA       0.068200
     80 H362        14.2940   -21.5340    28.1310 h1         1 EUA       0.045700
     81 H361        14.5730   -22.4510    29.6090 h1         1 EUA       0.045700
     82 H381        16.6040   -21.0740    26.6840 h1         1 EUA       0.042950
     83 H382        15.5570   -22.3880    26.1690 h1         1 EUA       0.042950
     84 H392        18.5700   -22.5730    26.7270 h1         1 EUA       0.038200
     85 H391        17.7930   -22.5820    25.1350 h1         1 EUA       0.038200
     86 H411        18.5710   -24.9030    24.4990 h1         1 EUA       0.065200
     87 H412        18.2330   -26.2300    25.5880 h1         1 EUA       0.065200
     88 H421        20.4930   -26.0280    25.8000 hc         1 EUA       0.062700
     89 H422        19.9750   -25.1240    27.2250 hc         1 EUA       0.062700
     90 H431        17.0120   -25.8810    27.7090 h1         1 EUA       0.038200
     91 H432        18.0950   -24.6210    28.3150 h1         1 EUA       0.038200
     92 H441        15.0940   -24.3370    27.7470 h1         1 EUA       0.042950
     93 H442        15.8840   -24.3570    29.3290 h1         1 EUA       0.042950
     94 H461        17.1950   -17.1110    27.3640 ha         1 EUA       0.126500
     95 H471        18.8470   -16.0260    25.8890 ha         1 EUA       0.119500
     96 H511        21.5770   -14.0330    29.7250 ha         1 EUA       0.131000
     97 H521        22.7820   -14.8070    31.7510 ha         1 EUA       0.117000
     98 H531        25.2230   -15.3020    31.6530 ha         1 EUA       0.116000
     99 H541        26.4660   -15.0100    29.5140 ha         1 EUA       0.117000
    100 H551        25.2860   -14.2500    27.4720 ha         1 EUA       0.131000
    101 H031        24.7780   -16.8270    25.5320 hn         1 EUA       0.325500
    102 H101        21.0850   -23.3810    27.5230 hn         1 EUA       0.150000
    103 H161        27.3710   -18.2260    28.9470 hn         1 EUA       0.314500
    104 H1          30.6070   -19.8000    35.3550 hn         1 EUA       0.398000
    105 H232        29.3110   -19.2350    34.5730 hn         1 EUA       0.398000
    106 H331        17.9300   -20.3020    29.1260 hn         1 EUA       0.156000
    107 H481        21.3140   -15.2490    27.4480 hn         1 EUA       0.511000
@<TRIPOS>BOND
     1     1    20 1   
     2     1    43 1   
     3     1    51 2   
     4     2     3 1   
     5     2    11 1   
     6     2    43 1   
     7     2    58 1   
     8     3     4 1   
     9     3    59 1   
    10     3    60 1   
    11     4     5 ar  
    12     4    10 ar  
    13     5     6 ar  
    14     5    61 1   
    15     6     7 ar  
    16     6    62 1   
    17     7     9 ar  
    18     7    44 1   
    19     8    32 1   
    20     8    44 1   
    21     8    52 2   
    22     9    10 ar  
    23     9    63 1   
    24    10    64 1   
    25    11    45 1   
    26    11    53 2   
    27    12    13 1   
    28    12    45 1   
    29    12    65 1   
    30    12    66 1   
    31    13    14 ar  
    32    13    19 ar  
    33    14    15 ar  
    34    14    67 1   
    35    15    16 ar  
    36    15    68 1   
    37    16    17 1   
    38    16    18 ar  
    39    17    46 1   
    40    17    69 1   
    41    17    70 1   
    42    18    19 ar  
    43    18    71 1   
    44    19    72 1   
    45    20    21 1   
    46    20    50 1   
    47    20    73 1   
    48    21    22 1   
    49    21    74 1   
    50    21    75 1   
    51    22    23 ar  
    52    22    36 ar  
    53    23    24 ar  
    54    23    76 1   
    55    24    25 ar  
    56    24    77 1   
    57    25    35 ar  
    58    25    47 1   
    59    26    27 1   
    60    26    47 1   
    61    26    54 2   
    62    27    28 1   
    63    27    78 1   
    64    27    79 1   
    65    28    48 1   
    66    28    80 1   
    67    28    81 1   
    68    29    30 1   
    69    29    48 1   
    70    29    82 1   
    71    29    83 1   
    72    30    49 1   
    73    30    84 1   
    74    30    85 1   
    75    31    32 1   
    76    31    49 1   
    77    31    86 1   
    78    31    87 1   
    79    32    88 1   
    80    32    89 1   
    81    33    34 1   
    82    33    49 1   
    83    33    90 1   
    84    33    91 1   
    85    34    48 1   
    86    34    92 1   
    87    34    93 1   
    88    35    36 ar  
    89    35    94 1   
    90    36    95 1   
    91    37    38 ar  
    92    37    42 ar  
    93    37    57 1   
    94    38    39 ar  
    95    38    96 1   
    96    39    40 ar  
    97    39    97 1   
    98    40    41 ar  
    99    40    98 1   
   100    41    42 ar  
   101    41    99 1   
   102    42   100 1   
   103    43   101 1   
   104    44   102 1   
   105    45   103 1   
   106    46   104 1   
   107    46   105 1   
   108    47   106 1   
   109    50    57 1   
   110    50   107 1   
   111    55    57 2   
   112    56    57 2   
@<TRIPOS>SUBSTRUCTURE
     1 EUA         1 TEMP              0 ****  ****    0 ROOT
