@<TRIPOS>MOLECULE
EUB
   31    33     1     0     0
SMALL
bcc


@<TRIPOS>ATOM
      1 CAG         -1.5760     0.6310     0.0170 ca         1 EUB      -0.118000
      2 CAD         -2.9420     0.4280     0.0170 ca         1 EUB      -0.024100
      3 SAC         -4.2080     1.6210     0.0170 ss         1 EUB      -0.168100
      4 CAB         -5.3870     0.3040     0.0090 cc         1 EUB       0.634100
      5 NAA         -6.7000     0.6000     0.0540 nv         1 EUB      -0.900800
      6 NAF         -4.8960    -0.8880     0.0090 nd         1 EUB      -0.620100
      7 CAE         -3.5210    -0.8540     0.0150 ca         1 EUB       0.106400
      8 CAJ         -2.6730    -1.9530     0.0180 ca         1 EUB      -0.057000
      9 CAI         -1.2960    -1.7730     0.0190 ca         1 EUB      -0.202000
     10 CAH         -0.7460    -0.4890     0.0170 ca         1 EUB       0.131100
     11 OAK          0.5830    -0.2300     0.0150 os         1 EUB      -0.319900
     12 CAL          1.4880    -1.3210     0.0220 c3         1 EUB       0.184700
     13 CAM          2.8680    -0.7340     0.0030 ca         1 EUB      -0.073300
     14 CAN          3.5200    -0.4320     1.1940 ca         1 EUB      -0.107000
     15 CAO          4.7770     0.1460     1.1850 ca         1 EUB      -0.095000
     16 CAP          5.3900     0.4290    -0.0350 ca         1 EUB      -0.007000
     17 CAS          6.6880     1.0220    -0.0540 cg         1 EUB       0.231800
     18 NAT          7.7370     1.4980    -0.0700 n1         1 EUB      -0.357800
     19 CAQ          4.7470     0.1310    -1.2360 ca         1 EUB      -0.095000
     20 CAR          3.4900    -0.4460    -1.2080 ca         1 EUB      -0.107000
     21 H1          -1.1500     1.6260     0.0160 ha         1 EUB       0.156000
     22 H2          -7.0110     1.5160    -0.2190 hn         1 EUB       0.430300
     23 H3          -7.3390    -0.1480    -0.1620 hn         1 EUB       0.430300
     24 H4          -3.0850    -2.9540     0.0180 ha         1 EUB       0.148000
     25 H5          -0.6650    -2.6500     0.0210 ha         1 EUB       0.136000
     26 H6           1.3470    -1.9380     0.9160 h1         1 EUB       0.043700
     27 H7           1.3330    -1.9620    -0.8520 h1         1 EUB       0.043700
     28 H8           3.0460    -0.6530     2.1420 ha         1 EUB       0.141000
     29 H9           5.2800     0.3750     2.1140 ha         1 EUB       0.146000
     30 H10          5.2280     0.3480    -2.1800 ha         1 EUB       0.146000
     31 H11          2.9930    -0.6780    -2.1410 ha         1 EUB       0.141000
@<TRIPOS>BOND
     1     1     2 ar  
     2     1    10 ar  
     3     1    21 1   
     4     2     3 1   
     5     2     7 ar  
     6     3     4 1   
     7     4     5 1   
     8     4     6 2   
     9     5    22 1   
    10     5    23 1   
    11     6     7 1   
    12     7     8 ar  
    13     8     9 ar  
    14     8    24 1   
    15     9    10 ar  
    16     9    25 1   
    17    10    11 1   
    18    11    12 1   
    19    12    13 1   
    20    12    26 1   
    21    12    27 1   
    22    13    14 ar  
    23    13    20 ar  
    24    14    15 ar  
    25    14    28 1   
    26    15    16 ar  
    27    15    29 1   
    28    16    17 1   
    29    16    19 ar  
    30    17    18 3   
    31    19    20 ar  
    32    19    30 1   
    33    20    31 1   
@<TRIPOS>SUBSTRUCTURE
     1 EUB         1 TEMP              0 ****  ****    0 ROOT
