@<TRIPOS>MOLECULE
EUB
   31    33     1     0     0
SMALL
No Charge or Current Charge


@<TRIPOS>ATOM
      1 CAG         -1.6630     0.6510     0.0180 ca         1 EUB      -0.100000
      2 CAD         -3.0510     0.4450     0.0290 ca         1 EUB      -0.151000
      3 SAC         -4.2760     1.7040     0.0330 ss         1 EUB      -0.041200
      4 CAB         -5.4320     0.3550     0.0490 cc         1 EUB       0.634100
      5 NAA         -6.7630     0.5370     0.0510 nv         1 EUB      -1.011200
      6 NAF         -4.9930    -0.8940     0.0480 nd         1 EUB      -0.620100
      7 CAE         -3.6020    -0.8230     0.0380 ca         1 EUB       0.106400
      8 CAJ         -2.7610    -1.9480     0.0360 ca         1 EUB      -0.039000
      9 CAI         -1.3600    -1.7720     0.0260 ca         1 EUB      -0.184000
     10 CAH         -0.8070    -0.4670     0.0170 ca         1 EUB       0.131100
     11 OAK          0.5530    -0.2370     0.0060 os         1 EUB      -0.343100
     12 CAL          1.5110    -1.3090     0.0030 c3         1 EUB       0.207900
     13 CAM          2.9100    -0.7060    -0.0090 ca         1 EUB      -0.073300
     14 CAN          3.5700    -0.4180     1.2010 ca         1 EUB      -0.089000
     15 CAO          4.8610     0.1400     1.1910 ca         1 EUB      -0.077000
     16 CAP          5.5030     0.4160    -0.0320 ca         1 EUB      -0.007000
     17 CAS          6.8230     0.9860    -0.0440 cg         1 EUB       0.321000
     18 NAT          7.8990     1.4410    -0.0530 n1         1 EUB      -0.447000
     19 CAQ          4.8440     0.1300    -1.2430 ca         1 EUB      -0.077000
     20 CAR          3.5530    -0.4270    -1.2310 ca         1 EUB      -0.089000
     21 H1          -1.2500     1.6570     0.0110 ha         1 EUB       0.138000
     22 H2          -7.1080     1.4360    -0.2680 hn         1 EUB       0.485500
     23 H3          -7.3190    -0.2740    -0.1930 hn         1 EUB       0.485500
     24 H4          -3.1890    -2.9470     0.0430 ha         1 EUB       0.130000
     25 H5          -0.7280    -2.6540     0.0240 ha         1 EUB       0.118000
     26 H6           1.3920    -1.9370     0.8960 h1         1 EUB       0.043700
     27 H7           1.3790    -1.9440    -0.8830 h1         1 EUB       0.043700
     28 H8           3.0820    -0.6240     2.1510 ha         1 EUB       0.123000
     29 H9           5.3600     0.3570     2.1330 ha         1 EUB       0.128000
     30 H10          5.3290     0.3400    -2.1950 ha         1 EUB       0.128000
     31 H11          3.0510    -0.6410    -2.1730 ha         1 EUB       0.123000
@<TRIPOS>BOND
     1     1     2 ar  
     2     1    10 ar  
     3     1    21 1   
     4     2     3 1   
     5     2     7 ar  
     6     3     4 1   
     7     4     5 1   
     8     4     6 2   
     9     5    22 1   
    10     5    23 1   
    11     6     7 1   
    12     7     8 ar  
    13     8     9 ar  
    14     8    24 1   
    15     9    10 ar  
    16     9    25 1   
    17    10    11 1   
    18    11    12 1   
    19    12    13 1   
    20    12    26 1   
    21    12    27 1   
    22    13    14 ar  
    23    13    20 ar  
    24    14    15 ar  
    25    14    28 1   
    26    15    16 ar  
    27    15    29 1   
    28    16    17 1   
    29    16    19 ar  
    30    17    18 3   
    31    19    20 ar  
    32    19    30 1   
    33    20    31 1   
@<TRIPOS>SUBSTRUCTURE
     1 EUB         1 TEMP              0 ****  ****    0 ROOT
