@<TRIPOS>MOLECULE
EUD
   41    42     1     0     0
SMALL
bcc


@<TRIPOS>ATOM
      1 C1          -0.8620     0.4530     1.1120 c6         1 EUD      -0.064400
      2 C2           0.3700     0.3470     0.2150 c6         1 EUD      -0.046700
      3 C3           1.5220     1.2820     0.6160 c6         1 EUD      -0.054700
      4 C4           1.0860     2.7400     0.7320 c3         1 EUD      -0.087100
      5 C5           2.6590     1.1670    -0.4020 c6         1 EUD      -0.072400
      6 C6           3.1310    -0.2660    -0.6150 c6         1 EUD      -0.071400
      7 C7           1.9640    -1.1840    -0.9570 c6         1 EUD      -0.068400
      8 C8           0.8310    -1.1250     0.0750 c6         1 EUD      -0.036000
      9 C9           1.3270    -1.7130     1.4020 c3         1 EUD      -0.080100
     10 C10         -0.3490    -1.9590    -0.4450 c6         1 EUD      -0.068400
     11 C11         -1.6230    -1.8080     0.3830 c6         1 EUD      -0.065400
     12 C12         -2.0480    -0.3490     0.5520 c6         1 EUD      -0.022500
     13 C13         -2.6470     0.2990    -0.6810 c2         1 EUD      -0.104400
     14 C14         -2.9520     1.7660    -0.5640 c3         1 EUD      -0.058900
     15 C15         -2.9580    -0.3590    -1.7980 c2         1 EUD      -0.230000
     16 H11         -1.1550     1.4950     1.2460 hc         1 EUD       0.040200
     17 H12         -0.6330     0.0860     2.1170 hc         1 EUD       0.040200
     18 H2           0.0560     0.6650    -0.7940 hc         1 EUD       0.049700
     19 H33          1.9040     0.9710     1.5970 hc         1 EUD       0.045700
     20 H41          0.5950     3.0770    -0.1850 hc         1 EUD       0.031033
     21 H42          0.3940     2.9050     1.5580 hc         1 EUD       0.031033
     22 H43          1.9480     3.3890     0.9010 hc         1 EUD       0.031033
     23 H51          2.3090     1.5770    -1.3580 hc         1 EUD       0.036700
     24 H52          3.4990     1.7950    -0.0890 hc         1 EUD       0.036700
     25 H61          3.8750    -0.2980    -1.4150 hc         1 EUD       0.037700
     26 H62          3.6410    -0.6230     0.2850 hc         1 EUD       0.037700
     27 H71          1.5610    -0.8880    -1.9340 hc         1 EUD       0.037700
     28 H72          2.3120    -2.2160    -1.0680 hc         1 EUD       0.037700
     29 H91          2.1850    -1.1750     1.8020 hc         1 EUD       0.031033
     30 H92          0.5630    -1.7140     2.1790 hc         1 EUD       0.031033
     31 H93          1.6370    -2.7500     1.2550 hc         1 EUD       0.031033
     32 H101        -0.5480    -1.6610    -1.4790 hc         1 EUD       0.039200
     33 H102        -0.0590    -3.0150    -0.4810 hc         1 EUD       0.039200
     34 H111        -2.4300    -2.4010    -0.0550 hc         1 EUD       0.039200
     35 H112        -1.4650    -2.2280     1.3800 hc         1 EUD       0.039200
     36 H121        -2.8410    -0.3120     1.3110 hc         1 EUD       0.048700
     37 H141        -3.5620     2.1160    -1.3950 hc         1 EUD       0.038367
     38 H142        -3.4820     1.9880     0.3650 hc         1 EUD       0.038367
     39 H143        -2.0380     2.3650    -0.5510 hc         1 EUD       0.038367
     40 H151        -2.7580    -1.4120    -1.9380 ha         1 EUD       0.111500
     41 H152        -3.4350     0.1480    -2.6280 ha         1 EUD       0.111500
@<TRIPOS>BOND
     1     1     2 1   
     2     1    12 1   
     3     1    16 1   
     4     1    17 1   
     5     2     3 1   
     6     2     8 1   
     7     2    18 1   
     8     3     4 1   
     9     3     5 1   
    10     3    19 1   
    11     4    20 1   
    12     4    21 1   
    13     4    22 1   
    14     5     6 1   
    15     5    23 1   
    16     5    24 1   
    17     6     7 1   
    18     6    25 1   
    19     6    26 1   
    20     7     8 1   
    21     7    27 1   
    22     7    28 1   
    23     8     9 1   
    24     8    10 1   
    25     9    29 1   
    26     9    30 1   
    27     9    31 1   
    28    10    11 1   
    29    10    32 1   
    30    10    33 1   
    31    11    12 1   
    32    11    34 1   
    33    11    35 1   
    34    12    13 1   
    35    12    36 1   
    36    13    14 1   
    37    13    15 2   
    38    14    37 1   
    39    14    38 1   
    40    14    39 1   
    41    15    40 1   
    42    15    41 1   
@<TRIPOS>SUBSTRUCTURE
     1 EUD         1 TEMP              0 ****  ****    0 ROOT
