@<TRIPOS>MOLECULE
EUD
   41    42     1     0     0
SMALL
No Charge or Current Charge


@<TRIPOS>ATOM
      1 C1          -0.8940     0.4860     1.1360 c6         1 EUD      -0.064400
      2 C2           0.3810     0.3740     0.2040 c6         1 EUD      -0.046700
      3 C3           1.5500     1.3230     0.6390 c6         1 EUD      -0.054700
      4 C4           1.1360     2.8200     0.7240 c3         1 EUD      -0.087100
      5 C5           2.7540     1.1570    -0.3690 c6         1 EUD      -0.072400
      6 C6           3.2220    -0.3180    -0.6360 c6         1 EUD      -0.071400
      7 C7           2.0060    -1.2090    -0.9930 c6         1 EUD      -0.068400
      8 C8           0.8500    -1.1300     0.0630 c6         1 EUD      -0.036000
      9 C9           1.3540    -1.7480     1.4190 c3         1 EUD      -0.080100
     10 C10         -0.3550    -1.9740    -0.4660 c6         1 EUD      -0.068400
     11 C11         -1.6410    -1.8270     0.3990 c6         1 EUD      -0.065400
     12 C12         -2.0880    -0.3410     0.5630 c6         1 EUD      -0.022500
     13 C13         -2.7260     0.3010    -0.6990 c2         1 EUD      -0.104400
     14 C14         -3.0870     1.7740    -0.5690 c3         1 EUD      -0.058900
     15 C15         -3.0200    -0.3690    -1.8290 c2         1 EUD      -0.330000
     16 H11         -1.2420     1.5190     1.3360 hc         1 EUD       0.040200
     17 H12         -0.6440     0.1090     2.1350 hc         1 EUD       0.040200
     18 H2           0.0670     0.7120    -0.7950 hc         1 EUD       0.049700
     19 H33          1.8920     1.0480     1.6460 hc         1 EUD       0.045700
     20 H41          0.6610     3.1570    -0.2060 hc         1 EUD       0.031033
     21 H42          0.4380     3.0050     1.5480 hc         1 EUD       0.031033
     22 H43          2.0090     3.4600     0.9010 hc         1 EUD       0.031033
     23 H51          2.4700     1.6050    -1.3320 hc         1 EUD       0.036700
     24 H52          3.6130     1.7430    -0.0130 hc         1 EUD       0.036700
     25 H61          3.9520    -0.3350    -1.4560 hc         1 EUD       0.037700
     26 H62          3.7440    -0.7110     0.2470 hc         1 EUD       0.037700
     27 H71          1.6270    -0.9020    -1.9780 hc         1 EUD       0.037700
     28 H72          2.3400    -2.2490    -1.1110 hc         1 EUD       0.037700
     29 H91          2.2000    -1.2010     1.8460 hc         1 EUD       0.031033
     30 H92          0.5810    -1.7720     2.1930 hc         1 EUD       0.031033
     31 H93          1.6870    -2.7830     1.2760 hc         1 EUD       0.031033
     32 H101        -0.5780    -1.6800    -1.5000 hc         1 EUD       0.039200
     33 H102        -0.0750    -3.0350    -0.5170 hc         1 EUD       0.039200
     34 H111        -2.4560    -2.4310    -0.0210 hc         1 EUD       0.039200
     35 H112        -1.4670    -2.2590     1.3930 hc         1 EUD       0.039200
     36 H121        -2.8730    -0.3330     1.3320 hc         1 EUD       0.048700
     37 H141        -3.7030     2.1160    -1.4090 hc         1 EUD       0.038367
     38 H142        -3.6570     1.9630     0.3490 hc         1 EUD       0.038367
     39 H143        -2.1930     2.4070    -0.5520 hc         1 EUD       0.038367
     40 H151        -2.8210    -1.4290    -1.9710 ha         1 EUD       0.161500
     41 H152        -3.4900     0.1320    -2.6760 ha         1 EUD       0.161500
@<TRIPOS>BOND
     1     1     2 1   
     2     1    12 1   
     3     1    16 1   
     4     1    17 1   
     5     2     3 1   
     6     2     8 1   
     7     2    18 1   
     8     3     4 1   
     9     3     5 1   
    10     3    19 1   
    11     4    20 1   
    12     4    21 1   
    13     4    22 1   
    14     5     6 1   
    15     5    23 1   
    16     5    24 1   
    17     6     7 1   
    18     6    25 1   
    19     6    26 1   
    20     7     8 1   
    21     7    27 1   
    22     7    28 1   
    23     8     9 1   
    24     8    10 1   
    25     9    29 1   
    26     9    30 1   
    27     9    31 1   
    28    10    11 1   
    29    10    32 1   
    30    10    33 1   
    31    11    12 1   
    32    11    34 1   
    33    11    35 1   
    34    12    13 1   
    35    12    36 1   
    36    13    14 1   
    37    13    15 2   
    38    14    37 1   
    39    14    38 1   
    40    14    39 1   
    41    15    40 1   
    42    15    41 1   
@<TRIPOS>SUBSTRUCTURE
     1 EUD         1 TEMP              0 ****  ****    0 ROOT
