@<TRIPOS>MOLECULE
EUE
   22    23     1     0     0
SMALL
No Charge or Current Charge


@<TRIPOS>ATOM
      1 CAN          3.3470    -0.3310     1.6570 c3         1 EUE      -0.337100
      2 SAK          2.9470    -0.2140    -0.0850 sy         1 EUE       1.064500
      3 OAL          3.7290     0.9080    -0.6210 o          1 EUE      -0.526000
      4 OAM          3.0780    -1.5680    -0.6380 o          1 EUE      -0.526000
      5 CAC          1.2050     0.2450    -0.0720 ca         1 EUE      -0.294500
      6 CAD          0.2150    -0.7610    -0.0800 ca         1 EUE       0.047000
      7 CAE         -1.1330    -0.3710    -0.0610 ca         1 EUE      -0.226000
      8 SAG         -2.5150    -1.4550    -0.0670 ss         1 EUE      -0.025200
      9 CAH         -3.4810     0.0360    -0.0350 cc         1 EUE       0.677100
     10 NAJ         -4.8210     0.0420    -0.0150 nv         1 EUE      -1.032200
     11 NAI         -2.8810     1.2140    -0.0160 nd         1 EUE      -0.654100
     12 CAF         -1.5140     0.9580    -0.0340 ca         1 EUE       0.205400
     13 CAA         -0.5370     1.9630    -0.0220 ca         1 EUE      -0.105000
     14 CAB          0.8260     1.6080    -0.0410 ca         1 EUE      -0.009000
     15 H1           2.7050    -1.0960     2.1050 h1         1 EUE       0.102033
     16 H2           4.4020    -0.6090     1.7470 h1         1 EUE       0.102033
     17 H3           3.1630     0.6460     2.1170 h1         1 EUE       0.102033
     18 H4           0.4790    -1.8180    -0.1000 ha         1 EUE       0.146000
     19 H5          -5.2760    -0.7980     0.3230 hn         1 EUE       0.508500
     20 H6          -5.2420     0.9200     0.2670 hn         1 EUE       0.508500
     21 H7          -0.8320     3.0080     0.0010 ha         1 EUE       0.137000
     22 H8           1.5800     2.3940    -0.0290 ha         1 EUE       0.136000
@<TRIPOS>BOND
     1     1     2 1   
     2     1    15 1   
     3     1    16 1   
     4     1    17 1   
     5     2     3 2   
     6     2     4 2   
     7     2     5 1   
     8     5     6 ar  
     9     5    14 ar  
    10     6     7 ar  
    11     6    18 1   
    12     7     8 1   
    13     7    12 ar  
    14     8     9 1   
    15     9    10 1   
    16     9    11 2   
    17    10    19 1   
    18    10    20 1   
    19    11    12 1   
    20    12    13 ar  
    21    13    14 ar  
    22    13    21 1   
    23    14    22 1   
@<TRIPOS>SUBSTRUCTURE
     1 EUE         1 TEMP              0 ****  ****    0 ROOT
