@<TRIPOS>MOLECULE
EUE
   22    23     1     0     0
SMALL
bcc


@<TRIPOS>ATOM
      1 CAN          3.3650    -0.2710     1.6300 c3         1 EUE      -0.226300
      2 SAK          2.8880    -0.2410    -0.0830 sy         1 EUE       1.095300
      3 OAL          3.6370     0.8250    -0.7450 o          1 EUE      -0.596800
      4 OAM          2.9880    -1.6020    -0.6110 o          1 EUE      -0.596800
      5 CAC          1.1820     0.2170    -0.0470 ca         1 EUE      -0.294500
      6 CAD          0.2150    -0.7810    -0.0670 ca         1 EUE       0.029000
      7 CAE         -1.1040    -0.3800    -0.0270 ca         1 EUE      -0.099100
      8 SAG         -2.5330    -1.3700    -0.0430 ss         1 EUE      -0.152100
      9 CAH         -3.4950     0.1060     0.0330 cc         1 EUE       0.677100
     10 NAJ         -4.8210     0.0240     0.0500 nv         1 EUE      -0.921800
     11 NAI         -2.8230     1.2180     0.0640 nd         1 EUE      -0.654100
     12 CAF         -1.4820     0.9770     0.0310 ca         1 EUE       0.205400
     13 CAA         -0.4830     1.9530     0.0470 ca         1 EUE      -0.123000
     14 CAB          0.8430     1.5700     0.0060 ca         1 EUE      -0.027000
     15 H1           2.7670    -1.0110     2.1570 h1         1 EUE       0.102033
     16 H2           4.4200    -0.5400     1.6750 h1         1 EUE       0.102033
     17 H3           3.2120     0.7150     2.0620 h1         1 EUE       0.102033
     18 H4           0.4830    -1.8280    -0.1150 ha         1 EUE       0.164000
     19 H5          -5.3080    -0.8540     0.0530 hn         1 EUE       0.453300
     20 H6          -5.3680     0.8650     0.1320 hn         1 EUE       0.453300
     21 H7          -0.7530     3.0000     0.0870 ha         1 EUE       0.155000
     22 H8           1.6140     2.3280     0.0120 ha         1 EUE       0.154000
@<TRIPOS>BOND
     1     1     2 1   
     2     1    15 1   
     3     1    16 1   
     4     1    17 1   
     5     2     3 2   
     6     2     4 2   
     7     2     5 1   
     8     5     6 ar  
     9     5    14 ar  
    10     6     7 ar  
    11     6    18 1   
    12     7     8 1   
    13     7    12 ar  
    14     8     9 1   
    15     9    10 1   
    16     9    11 2   
    17    10    19 1   
    18    10    20 1   
    19    11    12 1   
    20    12    13 ar  
    21    13    14 ar  
    22    13    21 1   
    23    14    22 1   
@<TRIPOS>SUBSTRUCTURE
     1 EUE         1 TEMP              0 ****  ****    0 ROOT
