@<TRIPOS>MOLECULE
EUG
   24    24     1     0     0
SMALL
abcg2


@<TRIPOS>ATOM
      1 C1           0.9900     0.0980     0.0290 ca         1 EUG      -0.050800
      2 C2          -0.1130    -0.7640    -0.0070 ca         1 EUG      -0.144000
      3 C3          -1.4090    -0.2780     0.0230 ca         1 EUG       0.045100
      4 C4          -1.6350     1.1050     0.0920 ca         1 EUG       0.122100
      5 C5          -0.5470     1.9620     0.1270 ca         1 EUG      -0.125000
      6 C6           0.7490     1.4680     0.0960 ca         1 EUG      -0.094000
      7 C7           2.3330    -0.4900    -0.0050 ce         1 EUG      -0.165200
      8 C8           3.5000     0.1580    -0.0040 c2         1 EUG      -0.205200
      9 C9          -2.3980    -2.4390    -0.0790 c3         1 EUG       0.157900
     10 O3          -2.5300    -1.0340    -0.0070 os         1 EUG      -0.369100
     11 O4          -2.8820     1.6170     0.1260 oh         1 EUG      -0.533100
     12 C10          4.8320    -0.5130    -0.0380 c3         1 EUG      -0.058900
     13 H2           0.0630    -1.8320    -0.0600 ha         1 EUG       0.115000
     14 H5          -0.7200     3.0300     0.1800 ha         1 EUG       0.130000
     15 H6           1.5690     2.1720     0.1270 ha         1 EUG       0.116000
     16 H7           2.3570    -1.5770    -0.0330 ha         1 EUG       0.166000
     17 H81          3.5190     1.2440     0.0210 ha         1 EUG       0.168000
     18 H91         -3.4060    -2.8450    -0.0900 h1         1 EUG       0.041033
     19 H92         -1.8810    -2.7510    -0.9900 h1         1 EUG       0.041033
     20 H93         -1.8640    -2.8400     0.7860 h1         1 EUG       0.041033
     21 HO4         -3.5330     0.9060     0.0960 ho         1 EUG       0.481000
     22 H10          5.4320    -0.2420     0.8330 hc         1 EUG       0.040700
     23 H11          4.7380    -1.5990    -0.0600 hc         1 EUG       0.040700
     24 H12          5.4050    -0.2040    -0.9150 hc         1 EUG       0.040700
@<TRIPOS>BOND
     1     1     2 ar  
     2     1     6 ar  
     3     1     7 1   
     4     2     3 ar  
     5     2    13 1   
     6     3     4 ar  
     7     3    10 1   
     8     4     5 ar  
     9     4    11 1   
    10     5     6 ar  
    11     5    14 1   
    12     6    15 1   
    13     7     8 2   
    14     7    16 1   
    15     8    12 1   
    16     8    17 1   
    17     9    10 1   
    18     9    18 1   
    19     9    19 1   
    20     9    20 1   
    21    11    21 1   
    22    12    22 1   
    23    12    23 1   
    24    12    24 1   
@<TRIPOS>SUBSTRUCTURE
     1 EUG         1 TEMP              0 ****  ****    0 ROOT
