@<TRIPOS>MOLECULE
EUG
   24    24     1     0     0
SMALL
No Charge or Current Charge


@<TRIPOS>ATOM
      1 C1           0.9850     0.0910     0.0880 ca         1 EUG      -0.050800
      2 C2          -0.1300    -0.7710     0.0530 ca         1 EUG      -0.144000
      3 C3          -1.4430    -0.2480     0.0330 ca         1 EUG       0.045100
      4 C4          -1.6320     1.1480     0.0530 ca         1 EUG       0.122100
      5 C5          -0.5280     2.0110     0.0940 ca         1 EUG      -0.125000
      6 C6           0.7760     1.4870     0.1130 ca         1 EUG      -0.094000
      7 C7           2.3550    -0.5030     0.1110 ce         1 EUG      -0.165200
      8 C8           3.5140     0.1530    -0.1190 c2         1 EUG      -0.205200
      9 C9          -2.4780    -2.4950    -0.0280 c3         1 EUG       0.157900
     10 O3          -2.5670    -1.0580    -0.0050 os         1 EUG      -0.369100
     11 O4          -2.8980     1.6600     0.0350 oh         1 EUG      -0.533100
     12 C10          4.8870    -0.4830    -0.0950 c3         1 EUG      -0.058900
     13 H2           0.0400    -1.8440     0.0370 ha         1 EUG       0.115000
     14 H5          -0.6820     3.0880     0.1140 ha         1 EUG       0.130000
     15 H6           1.6140     2.1760     0.1570 ha         1 EUG       0.116000
     16 H7           2.3820    -1.5740     0.3230 ha         1 EUG       0.166000
     17 H81          3.5280     1.2180    -0.3530 ha         1 EUG       0.168000
     18 H91         -3.4820    -2.9380    -0.0570 h1         1 EUG       0.041033
     19 H92         -1.9300    -2.8390    -0.9140 h1         1 EUG       0.041033
     20 H93         -1.9690    -2.8690     0.8690 h1         1 EUG       0.041033
     21 HO4         -3.5070     0.8890     0.0080 ho         1 EUG       0.481000
     22 H10          5.0970    -0.9300     0.8840 hc         1 EUG       0.040700
     23 H11          4.9680    -1.2740    -0.8510 hc         1 EUG       0.040700
     24 H12          5.6700     0.2560    -0.3000 hc         1 EUG       0.040700
@<TRIPOS>BOND
     1     1     2 ar  
     2     1     6 ar  
     3     1     7 1   
     4     2     3 ar  
     5     2    13 1   
     6     3     4 ar  
     7     3    10 1   
     8     4     5 ar  
     9     4    11 1   
    10     5     6 ar  
    11     5    14 1   
    12     6    15 1   
    13     7     8 2   
    14     7    16 1   
    15     8    12 1   
    16     8    17 1   
    17     9    10 1   
    18     9    18 1   
    19     9    19 1   
    20     9    20 1   
    21    11    21 1   
    22    12    22 1   
    23    12    23 1   
    24    12    24 1   
@<TRIPOS>SUBSTRUCTURE
     1 EUG         1 TEMP              0 ****  ****    0 ROOT
