@<TRIPOS>MOLECULE
EUH
   20    21     1     0     0
SMALL
No Charge or Current Charge


@<TRIPOS>ATOM
      1 FAM        -17.1060    17.1890     6.0050 f          1 EUH      -0.098667
      2 CAL        -15.8180    16.9420     5.6760 c3         1 EUH       0.407000
      3 FAN        -15.6960    17.1050     4.3390 f          1 EUH      -0.098667
      4 FAO        -15.0730    17.9080     6.2570 f          1 EUH      -0.098667
      5 SAK        -15.2670    15.2600     6.2270 ss         1 EUH      -0.175000
      6 CAH        -16.3120    14.0390     5.4070 ca         1 EUH      -0.166000
      7 CAG        -17.3510    14.3790     4.5090 ca         1 EUH       0.011000
      8 CAD        -18.1030    13.3470     3.9270 ca         1 EUH      -0.212000
      9 SAC        -19.4280    13.5590     2.7930 ss         1 EUH      -0.033200
     10 CAB        -19.5190    11.7850     2.8160 cc         1 EUH       0.667100
     11 NAA        -20.4070    11.0880     2.0910 nv         1 EUH      -1.025200
     12 NAF        -18.6790    11.0880     3.5610 nd         1 EUH      -0.644100
     13 CAE        -17.8630    12.0140     4.2030 ca         1 EUH       0.186400
     14 CAJ        -16.8370    11.6640     5.0900 ca         1 EUH      -0.098000
     15 CAI        -16.0640    12.6770     5.6900 ca         1 EUH      -0.037000
     16 H1         -17.5850    15.4080     4.2560 ha         1 EUH       0.139000
     17 H2         -20.8050    11.5540     1.2830 hn         1 EUH       0.502500
     18 H3         -20.1980    10.1030     1.9810 hn         1 EUH       0.502500
     19 H4         -16.6410    10.6180     5.3120 ha         1 EUH       0.138000
     20 H5         -15.2680    12.4030     6.3790 ha         1 EUH       0.134000
@<TRIPOS>BOND
     1     1     2 1   
     2     2     3 1   
     3     2     4 1   
     4     2     5 1   
     5     5     6 1   
     6     6     7 ar  
     7     6    15 ar  
     8     7     8 ar  
     9     7    16 1   
    10     8     9 1   
    11     8    13 ar  
    12     9    10 1   
    13    10    11 1   
    14    10    12 2   
    15    11    17 1   
    16    11    18 1   
    17    12    13 1   
    18    13    14 ar  
    19    14    15 ar  
    20    14    19 1   
    21    15    20 1   
@<TRIPOS>SUBSTRUCTURE
     1 EUH         1 TEMP              0 ****  ****    0 ROOT
