@<TRIPOS>MOLECULE
EUH
   20    21     1     0     0
SMALL
abcg2


@<TRIPOS>ATOM
      1 FAM        -16.4670    15.9930     7.2500 f          1 EUH      -0.098667
      2 CAL        -15.9200    16.5990     6.1800 c3         1 EUH       0.407000
      3 FAN        -16.9430    17.1560     5.5000 f          1 EUH      -0.098667
      4 FAO        -15.1410    17.6000     6.6270 f          1 EUH      -0.098667
      5 SAK        -14.8930    15.4920     5.1710 ss         1 EUH      -0.175000
      6 CAH        -16.0850    14.2290     4.7980 ca         1 EUH      -0.166000
      7 CAG        -16.8740    14.3460     3.6510 ca         1 EUH       0.011000
      8 CAD        -17.7830    13.3380     3.3860 ca         1 EUH      -0.212000
      9 SAC        -18.9060    13.2060     2.0540 ss         1 EUH      -0.033200
     10 CAB        -19.4620    11.6650     2.7390 cc         1 EUH       0.667100
     11 NAA        -20.4560    10.9870     2.1440 nv         1 EUH      -1.025200
     12 NAF        -18.8700    11.2900     3.8390 nd         1 EUH      -0.644100
     13 CAE        -17.9230    12.2100     4.2300 ca         1 EUH       0.186400
     14 CAJ        -17.1120    12.1100     5.3640 ca         1 EUH      -0.098000
     15 CAI        -16.2000    13.1150     5.6390 ca         1 EUH      -0.037000
     16 H1         -16.7740    15.2030     3.0000 ha         1 EUH       0.139000
     17 H2         -20.7690    11.2320     1.2200 hn         1 EUH       0.502500
     18 H3         -20.6680    10.0600     2.4790 hn         1 EUH       0.502500
     19 H4         -17.2030    11.2510     6.0160 ha         1 EUH       0.138000
     20 H5         -15.5700    13.0470     6.5160 ha         1 EUH       0.134000
@<TRIPOS>BOND
     1     1     2 1   
     2     2     3 1   
     3     2     4 1   
     4     2     5 1   
     5     5     6 1   
     6     6     7 ar  
     7     6    15 ar  
     8     7     8 ar  
     9     7    16 1   
    10     8     9 1   
    11     8    13 ar  
    12     9    10 1   
    13    10    11 1   
    14    10    12 2   
    15    11    17 1   
    16    11    18 1   
    17    12    13 1   
    18    13    14 ar  
    19    14    15 ar  
    20    14    19 1   
    21    15    20 1   
@<TRIPOS>SUBSTRUCTURE
     1 EUH         1 TEMP              0 ****  ****    0 ROOT
