@<TRIPOS>MOLECULE
EUI
   51    54     1     0     0
SMALL
No Charge or Current Charge


@<TRIPOS>ATOM
      1 O20          0.8190     1.0930    -2.2660 o          1 EUI      -0.578100
      2 C18          1.6190     1.3050    -1.3590 c          1 EUI       0.623700
      3 C15          1.4310     2.5570    -0.5010 ca         1 EUI      -0.171600
      4 C14          2.5880     3.2330    -0.0220 ca         1 EUI      -0.055000
      5 C13          2.4870     4.4340     0.6930 ca         1 EUI      -0.153000
      6 C12          1.2330     5.0000     0.9340 ca         1 EUI       0.168000
      7 F17          1.1480     6.1680     1.6120 f          1 EUI      -0.153000
      8 C11          0.0720     4.3600     0.4760 ca         1 EUI       0.098000
      9 F16         -1.1370     4.9260     0.7310 f          1 EUI      -0.152000
     10 C10          0.1520     3.1290    -0.2230 ca         1 EUI       0.318000
     11 N9          -1.0560     2.5150    -0.6020 nu         1 EUI      -0.987000
     12 C5          -1.5730     1.2250    -0.3990 ca         1 EUI       0.287000
     13 C4          -1.0970     0.4470     0.6710 ca         1 EUI      -0.139000
     14 C3          -1.6000    -0.8500     0.8900 ca         1 EUI      -0.090000
     15 C2          -2.5930    -1.3700     0.0430 ca         1 EUI       0.180000
     16 I8          -3.3610    -3.3630     0.3810 i          1 EUI      -0.293000
     17 C6          -2.5930     0.6980    -1.2310 ca         1 EUI       0.140000
     18 F7          -3.0940     1.4340    -2.2540 f          1 EUI      -0.166000
     19 C1          -3.0950    -0.5960    -1.0140 ca         1 EUI      -0.095000
     20 N19          2.8630     0.6330    -1.0770 nj         1 EUI      -0.411800
     21 C23          2.7400    -0.6960    -1.7680 cy         1 EUI       0.056000
     22 C22          3.1170    -1.3290    -0.3730 cy         1 EUI       0.162000
     23 C21          2.5650     0.0110     0.2500 cy         1 EUI       0.056000
     24 O24          2.3890    -2.5110    -0.0210 oh         1 EUI      -0.609000
     25 C25          4.6780    -1.4970    -0.1690 c6         1 EUI       0.198500
     26 C30          5.2740    -2.6370    -1.0510 c6         1 EUI      -0.070400
     27 C29          6.8060    -2.7550    -0.8600 c6         1 EUI      -0.075400
     28 C28          7.1530    -2.9180     0.6390 c6         1 EUI      -0.077400
     29 C27          6.5160    -1.7870     1.4800 c6         1 EUI       0.162800
     30 N26          5.0520    -1.7140     1.2630 n7         1 EUI      -0.850400
     31 H14          3.5860     2.8500    -0.2270 ha         1 EUI       0.130000
     32 H13          3.3840     4.9380     1.0450 ha         1 EUI       0.142000
     33 H9          -1.7180     3.1530    -1.0500 hn         1 EUI       0.521000
     34 H4          -0.3520     0.8540     1.3480 ha         1 EUI       0.128000
     35 H3          -1.2290    -1.4480     1.7180 ha         1 EUI       0.132000
     36 H1          -3.8690    -0.9960    -1.6610 ha         1 EUI       0.148000
     37 H231         1.7470    -1.0060    -2.1120 h1         1 EUI       0.064450
     38 H232         3.4830    -0.8410    -2.5600 h1         1 EUI       0.064450
     39 H211         3.1620     0.4220     1.0710 h1         1 EUI       0.064450
     40 H212         1.5070    -0.0430     0.5280 h1         1 EUI       0.064450
     41 H24          1.4370    -2.3420    -0.1790 ho         1 EUI       0.445000
     42 H25          5.1500    -0.5560    -0.4900 h1         1 EUI       0.023700
     43 H301         4.8000    -3.5940    -0.7930 hc         1 EUI       0.055700
     44 H302         5.0540    -2.4570    -2.1110 hc         1 EUI       0.055700
     45 H26          4.6760    -0.9430     1.8250 hn         1 EUI       0.406000
     46 H291         7.1940    -3.6080    -1.4330 hc         1 EUI       0.039700
     47 H292         7.2990    -1.8570    -1.2580 hc         1 EUI       0.039700
     48 H281         6.7920    -3.8910     1.0000 hc         1 EUI       0.048700
     49 H282         8.2420    -2.9170     0.7760 hc         1 EUI       0.048700
     50 H271         6.7200    -1.9620     2.5470 h1         1 EUI       0.028200
     51 H272         6.9730    -0.8240     1.2070 h1         1 EUI       0.028200
@<TRIPOS>BOND
     1     1     2 2   
     2     2     3 1   
     3     2    20 1   
     4     3     4 ar  
     5     3    10 ar  
     6     4     5 ar  
     7     4    31 1   
     8     5     6 ar  
     9     5    32 1   
    10     6     7 1   
    11     6     8 ar  
    12     8     9 1   
    13     8    10 ar  
    14    10    11 1   
    15    11    12 1   
    16    11    33 1   
    17    12    13 ar  
    18    12    17 ar  
    19    13    14 ar  
    20    13    34 1   
    21    14    15 ar  
    22    14    35 1   
    23    15    16 1   
    24    15    19 ar  
    25    17    18 1   
    26    17    19 ar  
    27    19    36 1   
    28    20    21 1   
    29    20    23 1   
    30    21    22 1   
    31    21    37 1   
    32    21    38 1   
    33    22    23 1   
    34    22    24 1   
    35    22    25 1   
    36    23    39 1   
    37    23    40 1   
    38    24    41 1   
    39    25    26 1   
    40    25    30 1   
    41    25    42 1   
    42    26    27 1   
    43    26    43 1   
    44    26    44 1   
    45    27    28 1   
    46    27    46 1   
    47    27    47 1   
    48    28    29 1   
    49    28    48 1   
    50    28    49 1   
    51    29    30 1   
    52    29    50 1   
    53    29    51 1   
    54    30    45 1   
@<TRIPOS>SUBSTRUCTURE
     1 EUI         1 TEMP              0 ****  ****    0 ROOT
