@<TRIPOS>MOLECULE
EUI
   51    54     1     0     0
SMALL
bcc


@<TRIPOS>ATOM
      1 O20          0.9910     1.5710    -2.4400 o          1 EUI      -0.578100
      2 C18          1.4800     1.6000    -1.3200 c          1 EUI       0.690700
      3 C15          1.3010     2.7840    -0.4220 ca         1 EUI      -0.171600
      4 C14          2.4110     3.4850     0.0310 ca         1 EUI      -0.073000
      5 C13          2.2750     4.6840     0.7140 ca         1 EUI      -0.171000
      6 C12          1.0060     5.1650     0.9530 ca         1 EUI       0.132900
      7 F17          0.8270     6.3110     1.6120 f          1 EUI      -0.117900
      8 C11         -0.1100     4.4590     0.5410 ca         1 EUI       0.062900
      9 F16         -1.3230     4.9340     0.8270 f          1 EUI      -0.116900
     10 C10          0.0110     3.2640    -0.1560 ca         1 EUI       0.179600
     11 N9          -1.1460     2.5870    -0.5350 nu         1 EUI      -0.655000
     12 C5          -1.2630     1.2130    -0.4320 ca         1 EUI       0.148600
     13 C4          -0.8290     0.5250     0.6990 ca         1 EUI      -0.157000
     14 C3          -0.9430    -0.8550     0.7970 ca         1 EUI      -0.108000
     15 C2          -1.5180    -1.5680    -0.2450 ca         1 EUI       0.042900
     16 I8          -1.6960    -3.6560    -0.1110 i          1 EUI      -0.155900
     17 C6          -1.8400     0.4560    -1.4500 ca         1 EUI       0.104900
     18 F7          -2.2770     1.0930    -2.5430 f          1 EUI      -0.130900
     19 C1          -1.9820    -0.9130    -1.3780 ca         1 EUI      -0.113000
     20 N19          2.2240     0.6020    -0.8380 nj         1 EUI      -0.478800
     21 C23          2.3770    -0.7260    -1.4040 cy         1 EUI       0.056000
     22 C22          2.9690    -1.1930    -0.0460 cy         1 EUI       0.138800
     23 C21          2.6740     0.2390     0.4980 cy         1 EUI       0.056000
     24 O24          2.3030    -2.2370     0.5890 oh         1 EUI      -0.546800
     25 C25          4.4540    -1.5220    -0.1240 c6         1 EUI       0.198500
     26 C30          4.7260    -2.7780    -0.9490 c6         1 EUI      -0.070400
     27 C29          6.2210    -3.0760    -0.9930 c6         1 EUI      -0.075400
     28 C28          6.7910    -3.1510     0.4190 c6         1 EUI      -0.077400
     29 C27          6.4460    -1.8900     1.1940 c6         1 EUI       0.162800
     30 N26          5.0050    -1.6910     1.2080 n7         1 EUI      -0.795200
     31 H14          3.4060     3.1200    -0.1860 ha         1 EUI       0.148000
     32 H13          3.1400     5.2450     1.0410 ha         1 EUI       0.160000
     33 H9          -1.7840     3.0720    -1.1460 hn         1 EUI       0.465800
     34 H4          -0.4060     1.0750     1.5290 ha         1 EUI       0.146000
     35 H3          -0.6210    -1.3450     1.7060 ha         1 EUI       0.150000
     36 H1          -2.4330    -1.4430    -2.2060 ha         1 EUI       0.166000
     37 H231         1.4220    -1.1940    -1.6630 h1         1 EUI       0.064450
     38 H232         3.0410    -0.7750    -2.2690 h1         1 EUI       0.064450
     39 H211         3.5390     0.8040     0.8490 h1         1 EUI       0.064450
     40 H212         1.8940     0.2850     1.2620 h1         1 EUI       0.064450
     41 H24          1.3570    -2.0580     0.5800 ho         1 EUI       0.406000
     42 H25          4.9290    -0.6740    -0.6550 h1         1 EUI       0.023700
     43 H301         4.1960    -3.6250    -0.5070 hc         1 EUI       0.055700
     44 H302         4.3410    -2.6480    -1.9640 hc         1 EUI       0.055700
     45 H26          4.7960    -0.8770     1.7740 hn         1 EUI       0.350800
     46 H291         6.4060    -4.0070    -1.5340 hc         1 EUI       0.039700
     47 H292         6.7340    -2.2840    -1.5500 hc         1 EUI       0.039700
     48 H281         6.3730    -4.0190     0.9390 hc         1 EUI       0.048700
     49 H282         7.8750    -3.2840     0.3940 hc         1 EUI       0.048700
     50 H271         6.7920    -1.9720     2.2260 h1         1 EUI       0.028200
     51 H272         6.9820    -1.0380     0.7450 h1         1 EUI       0.028200
@<TRIPOS>BOND
     1     1     2 2   
     2     2     3 1   
     3     2    20 1   
     4     3     4 ar  
     5     3    10 ar  
     6     4     5 ar  
     7     4    31 1   
     8     5     6 ar  
     9     5    32 1   
    10     6     7 1   
    11     6     8 ar  
    12     8     9 1   
    13     8    10 ar  
    14    10    11 1   
    15    11    12 1   
    16    11    33 1   
    17    12    13 ar  
    18    12    17 ar  
    19    13    14 ar  
    20    13    34 1   
    21    14    15 ar  
    22    14    35 1   
    23    15    16 1   
    24    15    19 ar  
    25    17    18 1   
    26    17    19 ar  
    27    19    36 1   
    28    20    21 1   
    29    20    23 1   
    30    21    22 1   
    31    21    37 1   
    32    21    38 1   
    33    22    23 1   
    34    22    24 1   
    35    22    25 1   
    36    23    39 1   
    37    23    40 1   
    38    24    41 1   
    39    25    26 1   
    40    25    30 1   
    41    25    42 1   
    42    26    27 1   
    43    26    43 1   
    44    26    44 1   
    45    27    28 1   
    46    27    46 1   
    47    27    47 1   
    48    28    29 1   
    49    28    48 1   
    50    28    49 1   
    51    29    30 1   
    52    29    50 1   
    53    29    51 1   
    54    30    45 1   
@<TRIPOS>SUBSTRUCTURE
     1 EUI         1 TEMP              0 ****  ****    0 ROOT
