@<TRIPOS>MOLECULE
EUK
   30    32     1     0     0
SMALL
bcc


@<TRIPOS>ATOM
      1 CAG         -2.8000     0.0510    -0.8680 ca         1 EUK      -0.065000
      2 CAD         -4.1160     0.0890    -0.4510 ca         1 EUK      -0.050100
      3 SAC         -5.5460     0.3220    -1.4140 ss         1 EUK      -0.177100
      4 CAB         -6.5060     0.1890     0.0650 cc         1 EUK       0.668100
      5 NAA         -7.8340     0.3030    -0.0070 nv         1 EUK      -0.933800
      6 NAF         -5.8360    -0.0080     1.1540 nd         1 EUK      -0.641100
      7 CAE         -4.4890    -0.0670     0.8960 ca         1 EUK       0.144400
      8 CAJ         -3.4840    -0.2610     1.8370 ca         1 EUK      -0.086000
      9 CAI         -2.1570    -0.2990     1.4350 ca         1 EUK      -0.129000
     10 CAH         -1.8060    -0.1470     0.0910 ca         1 EUK       0.022900
     11 SAK         -0.1440    -0.1850    -0.5050 ss         1 EUK      -0.244000
     12 CAL          0.8500    -0.4830     0.9880 c3         1 EUK       0.048000
     13 CAM          2.2830    -0.5230     0.5510 ca         1 EUK      -0.071300
     14 CAN          3.0060     0.6560     0.4230 ca         1 EUK      -0.098000
     15 CAO          4.3250     0.6290    -0.0020 ca         1 EUK       0.024400
     16 CLS          5.1950     2.1080    -0.1440 cl         1 EUK      -0.077400
     17 CAP          4.9330    -0.5820    -0.3120 ca         1 EUK       0.031400
     18 CLT          6.5720    -0.6340    -0.8360 cl         1 EUK      -0.077400
     19 CAQ          4.2140    -1.7620    -0.1930 ca         1 EUK      -0.115000
     20 CAR          2.8970    -1.7300     0.2320 ca         1 EUK      -0.103000
     21 H1          -2.5470     0.1720    -1.9150 ha         1 EUK       0.151000
     22 H2          -8.3180     0.4260    -0.8780 hn         1 EUK       0.449300
     23 H3          -8.3860     0.1760     0.8230 hn         1 EUK       0.449300
     24 H4          -3.7350    -0.3810     2.8820 ha         1 EUK       0.148000
     25 H5          -1.3990    -0.4470     2.1900 ha         1 EUK       0.131000
     26 H6           0.6820     0.3170     1.7090 h1         1 EUK       0.074200
     27 H7           0.5580    -1.4310     1.4410 h1         1 EUK       0.074200
     28 H8           2.5450     1.6060     0.6610 ha         1 EUK       0.155000
     29 H9           4.6860    -2.7050    -0.4330 ha         1 EUK       0.152000
     30 H10          2.3470    -2.6580     0.3240 ha         1 EUK       0.144000
@<TRIPOS>BOND
     1     1     2 ar  
     2     1    10 ar  
     3     1    21 1   
     4     2     3 1   
     5     2     7 ar  
     6     3     4 1   
     7     4     5 1   
     8     4     6 2   
     9     5    22 1   
    10     5    23 1   
    11     6     7 1   
    12     7     8 ar  
    13     8     9 ar  
    14     8    24 1   
    15     9    10 ar  
    16     9    25 1   
    17    10    11 1   
    18    11    12 1   
    19    12    13 1   
    20    12    26 1   
    21    12    27 1   
    22    13    14 ar  
    23    13    20 ar  
    24    14    15 ar  
    25    14    28 1   
    26    15    16 1   
    27    15    17 ar  
    28    17    18 1   
    29    17    19 ar  
    30    19    20 ar  
    31    19    29 1   
    32    20    30 1   
@<TRIPOS>SUBSTRUCTURE
     1 EUK         1 TEMP              0 ****  ****    0 ROOT
