@<TRIPOS>MOLECULE
EUK
   30    32     1     0     0
SMALL
No Charge or Current Charge


@<TRIPOS>ATOM
      1 CAG         -2.9110     0.0940    -0.9120 ca         1 EUK      -0.047000
      2 CAD         -4.2400     0.1430    -0.4660 ca         1 EUK      -0.177000
      3 SAC         -5.6530     0.4050    -1.4750 ss         1 EUK      -0.050200
      4 CAB         -6.5630     0.2680     0.0450 cc         1 EUK       0.668100
      5 NAA         -7.8990     0.3640     0.1070 nv         1 EUK      -1.044200
      6 NAF         -5.9250     0.0500     1.1830 nd         1 EUK      -0.641100
      7 CAE         -4.5710    -0.0190     0.8660 ca         1 EUK       0.144400
      8 CAJ         -3.5580    -0.2390     1.8120 ca         1 EUK      -0.068000
      9 CAI         -2.2130    -0.2930     1.3930 ca         1 EUK      -0.111000
     10 CAH         -1.8820    -0.1260     0.0260 ca         1 EUK      -0.104000
     11 SAK         -0.1900    -0.1830    -0.5790 ss         1 EUK      -0.165000
     12 CAL          0.8710    -0.4610     0.9070 c3         1 EUK       0.095900
     13 CAM          2.3390    -0.5180     0.5090 ca         1 EUK      -0.071300
     14 CAN          3.0940     0.6680     0.4170 ca         1 EUK      -0.080000
     15 CAO          4.4490     0.6210     0.0450 ca         1 EUK       0.116000
     16 ClS          5.3600     2.1290    -0.0600 cl         1 EUK      -0.169000
     17 CAP          5.0580    -0.6190    -0.2390 ca         1 EUK       0.123000
     18 ClT          6.7560    -0.7150    -0.7090 cl         1 EUK      -0.169000
     19 CAQ          4.3060    -1.8030    -0.1490 ca         1 EUK      -0.097000
     20 CAR          2.9510    -1.7530     0.2230 ca         1 EUK      -0.085000
     21 H1          -2.6780     0.2240    -1.9670 ha         1 EUK       0.133000
     22 H2          -8.4090     0.1800    -0.7490 hn         1 EUK       0.504500
     23 H3          -8.3170     0.0110     0.9600 hn         1 EUK       0.504500
     24 H4          -3.8120    -0.3680     2.8610 ha         1 EUK       0.130000
     25 H5          -1.4470    -0.4650     2.1430 ha         1 EUK       0.113000
     26 H6           0.7110     0.3560     1.6210 h1         1 EUK       0.074200
     27 H7           0.5780    -1.4040     1.3860 h1         1 EUK       0.074200
     28 H8           2.6310     1.6290     0.6310 ha         1 EUK       0.137000
     29 H9           4.7750    -2.7590    -0.3700 ha         1 EUK       0.134000
     30 H10          2.3770    -2.6760     0.2860 ha         1 EUK       0.126000
@<TRIPOS>BOND
     1     1     2 ar  
     2     1    10 ar  
     3     1    21 1   
     4     2     3 1   
     5     2     7 ar  
     6     3     4 1   
     7     4     5 1   
     8     4     6 2   
     9     5    22 1   
    10     5    23 1   
    11     6     7 1   
    12     7     8 ar  
    13     8     9 ar  
    14     8    24 1   
    15     9    10 ar  
    16     9    25 1   
    17    10    11 1   
    18    11    12 1   
    19    12    13 1   
    20    12    26 1   
    21    12    27 1   
    22    13    14 ar  
    23    13    20 ar  
    24    14    15 ar  
    25    14    28 1   
    26    15    16 1   
    27    15    17 ar  
    28    17    18 1   
    29    17    19 ar  
    30    19    20 ar  
    31    19    29 1   
    32    20    30 1   
@<TRIPOS>SUBSTRUCTURE
     1 EUK         1 TEMP              0 ****  ****    0 ROOT
