@<TRIPOS>MOLECULE
EUM
   55    57     1     0     0
SMALL
No Charge or Current Charge


@<TRIPOS>ATOM
      1 C11         -3.8120     6.3670    14.2620 ca         1 EUM      -0.121000
      2 C19         -5.6080    14.4870    11.8530 ca         1 EUM      -0.139000
      3 C21         -7.5540    13.0660    11.5680 ca         1 EUM      -0.173000
      4 C5          -1.0040     8.4650    12.2630 ca         1 EUM      -0.201000
      5 C2          -4.3640     9.7580    10.8930 c          1 EUM       0.621700
      6 C6          -0.9510     7.1820    11.7000 ca         1 EUM       0.342000
      7 C7           1.0710     6.3950    13.1270 c3         1 EUM       0.134800
      8 C14         -5.2530     4.2190    15.3620 ca         1 EUM      -0.011000
      9 C15         -3.9340     4.4710    15.7800 ca         1 EUM      -0.121000
     10 C8           0.3760     6.4140    14.5290 c          1 EUM       0.583100
     11 N3          -0.8580     5.8070    14.5620 ns         1 EUM      -0.494900
     12 C1          -5.3180    12.0730    11.5640 ca         1 EUM      -0.098000
     13 C4          -2.0990     9.3090    12.0150 ca         1 EUM      -0.021000
     14 C10         -3.2070     5.5470    15.2370 ca         1 EUM      -0.059300
     15 C17         -3.1000     7.5810    10.6280 ca         1 EUM      -0.021000
     16 C20         -6.9980    14.3430    11.7500 ca         1 EUM      -0.077000
     17 C16         -2.0000     6.7450    10.8850 ca         1 EUM      -0.201000
     18 C9          -1.7800     5.8240    15.6930 c3         1 EUM       0.137300
     19 O3          -5.2410     9.3890    10.1170 o          1 EUM      -0.612100
     20 N1          -4.3760    10.9960    11.5300 ns         1 EUM      -0.143000
     21 C18         -4.7760    13.3590    11.7690 ca         1 EUM      -0.101000
     22 C           -6.7320    11.9310    11.4770 ca         1 EUM       0.295000
     23 N           -7.3430    10.7160    11.3350 nv         1 EUM      -1.053000
     24 C3          -3.1660     8.8770    11.1900 ca         1 EUM      -0.208600
     25 N2           0.1180     6.3230    11.9590 nu         1 EUM      -0.987200
     26 O2           0.8650     6.9470    15.5180 o          1 EUM      -0.603100
     27 C13         -5.8570     5.0430    14.3880 ca         1 EUM      -0.267500
     28 S           -7.5480     4.7250    13.8740 sy         1 EUM       1.124600
     29 O1          -8.0520     5.8460    13.0830 o          1 EUM      -0.542500
     30 N4          -7.3490     3.5270    12.7740 n8         1 EUM      -1.004100
     31 O           -8.3070     4.1130    14.9650 o          1 EUM      -0.542500
     32 C12         -5.1280     6.1170    13.8340 ca         1 EUM      -0.011000
     33 H1          -3.2630     7.2030    13.8350 ha         1 EUM       0.125500
     34 H3          -8.6340    12.9630    11.5040 ha         1 EUM       0.111000
     35 H4          -0.1960     8.8210    12.8950 ha         1 EUM       0.119500
     36 H5           1.7480     5.5300    13.1160 h1         1 EUM       0.076200
     37 H6           1.6870     7.3020    13.0600 h1         1 EUM       0.076200
     38 H7          -5.8020     3.3840    15.7980 ha         1 EUM       0.138500
     39 H8          -3.4810     3.8270    16.5320 ha         1 EUM       0.125500
     40 H9          -1.1840     5.4460    13.6720 hn         1 EUM       0.329500
     41 H10         -2.0940    10.2970    12.4720 ha         1 EUM       0.125500
     42 H11         -3.9030     7.2140     9.9910 ha         1 EUM       0.125500
     43 H12         -7.6440    15.2160    11.8180 ha         1 EUM       0.112000
     44 H13         -1.9720     5.7500    10.4490 ha         1 EUM       0.119500
     45 H14         -1.4580     5.0710    16.4260 h1         1 EUM       0.071700
     46 H15         -1.7410     6.8100    16.1780 h1         1 EUM       0.071700
     47 H16         -3.5520    11.1720    12.0870 hn         1 EUM       0.154000
     48 H17         -3.6990    13.4880    11.8580 ha         1 EUM       0.110000
     49 H18         -8.3350    10.7000    11.1110 hn         1 EUM       0.447000
     50 H19         -6.7830     9.9720    10.9140 hn         1 EUM       0.447000
     51 H20          0.1350     5.4670    11.3960 hn         1 EUM       0.492000
     52 H21         -7.8650     3.9040    11.9820 hn         1 EUM       0.472500
     53 H22         -6.3740     3.6380    12.5060 hn         1 EUM       0.472500
     54 H23         -5.5750     6.7650    13.0800 ha         1 EUM       0.138500
     55 H2          -5.1730    15.4740    12.0030 ha         1 EUM       0.116000
@<TRIPOS>BOND
     1     1    14 ar  
     2     1    32 ar  
     3     1    33 1   
     4     2    16 ar  
     5     2    21 ar  
     6     2    55 1   
     7     3    16 ar  
     8     3    22 ar  
     9     3    34 1   
    10     4     6 ar  
    11     4    13 ar  
    12     4    35 1   
    13     5    19 2   
    14     5    20 1   
    15     5    24 1   
    16     6    17 ar  
    17     6    25 1   
    18     7    10 1   
    19     7    25 1   
    20     7    36 1   
    21     7    37 1   
    22     8     9 ar  
    23     8    27 ar  
    24     8    38 1   
    25     9    14 ar  
    26     9    39 1   
    27    10    11 1   
    28    10    26 2   
    29    11    18 1   
    30    11    40 1   
    31    12    20 1   
    32    12    21 ar  
    33    12    22 ar  
    34    13    24 ar  
    35    13    41 1   
    36    14    18 1   
    37    15    17 ar  
    38    15    24 ar  
    39    15    42 1   
    40    16    43 1   
    41    17    44 1   
    42    18    45 1   
    43    18    46 1   
    44    20    47 1   
    45    21    48 1   
    46    22    23 1   
    47    23    49 1   
    48    23    50 1   
    49    25    51 1   
    50    27    28 1   
    51    27    32 ar  
    52    28    29 2   
    53    28    30 1   
    54    28    31 2   
    55    30    52 1   
    56    30    53 1   
    57    32    54 1   
@<TRIPOS>SUBSTRUCTURE
     1 EUM         1 TEMP              0 ****  ****    0 ROOT
