@<TRIPOS>MOLECULE
EUM
   55    57     1     0     0
SMALL
bcc


@<TRIPOS>ATOM
      1 C11         -5.8170     3.8680    15.1740 ca         1 EUM      -0.139000
      2 C19         -3.4290    16.3980    10.0170 ca         1 EUM      -0.157000
      3 C21         -5.7030    15.8430    10.5680 ca         1 EUM      -0.191000
      4 C5          -2.3040     9.0770    12.6100 ca         1 EUM      -0.219000
      5 C2          -3.9720    11.7210    10.4500 c          1 EUM       0.688700
      6 C6          -2.2690     7.9840    11.7320 ca         1 EUM       0.203600
      7 C7          -1.0600     6.5380    13.3240 c3         1 EUM       0.134800
      8 C14         -3.8280     2.0440    15.8250 ca         1 EUM      -0.029000
      9 C15         -3.5370     3.3930    15.7520 ca         1 EUM      -0.139000
     10 C8          -1.9270     6.3150    14.5610 c          1 EUM       0.650100
     11 N3          -3.2220     6.0750    14.3170 ns         1 EUM      -0.561900
     12 C1          -4.0050    14.1520    10.7140 ca         1 EUM      -0.005400
     13 C4          -2.8300    10.2880    12.1980 ca         1 EUM      -0.039000
     14 C10         -4.5290     4.3190    15.4250 ca         1 EUM      -0.059300
     15 C17         -3.3330     9.3610    10.0520 ca         1 EUM      -0.039000
     16 C20         -4.7590    16.7700    10.1610 ca         1 EUM      -0.095000
     17 C16         -2.7930     8.1570    10.4390 ca         1 EUM      -0.219000
     18 C9          -4.2000     5.7890    15.3380 c3         1 EUM       0.137300
     19 O3          -4.8230    11.7330     9.5690 o          1 EUM      -0.612100
     20 N1          -3.5540    12.8580    11.0590 ns         1 EUM      -0.469100
     21 C18         -3.0690    15.0880    10.2870 ca         1 EUM      -0.119000
     22 C           -5.3540    14.5200    10.8610 ca         1 EUM       0.156600
     23 N           -6.2960    13.6380    11.3590 nv         1 EUM      -0.804200
     24 C3          -3.3520    10.4590    10.9180 ca         1 EUM      -0.208600
     25 N2          -1.7730     6.7670    12.1020 nu         1 EUM      -0.793600
     26 O2          -1.4240     6.3330    15.6740 o          1 EUM      -0.603100
     27 C13         -5.1260     1.6160    15.5680 ca         1 EUM      -0.267500
     28 S           -5.4960    -0.1120    15.6730 sy         1 EUM       1.266200
     29 O1          -6.9430    -0.2630    15.6080 o          1 EUM      -0.613300
     30 N4          -4.7300    -0.6770    14.3200 n8         1 EUM      -0.893700
     31 O           -4.7910    -0.7000    16.8020 o          1 EUM      -0.613300
     32 C12         -6.1270     2.5160    15.2460 ca         1 EUM      -0.029000
     33 H1          -6.5950     4.5760    14.9160 ha         1 EUM       0.143500
     34 H3          -6.7390    16.1440    10.6730 ha         1 EUM       0.129000
     35 H4          -1.9330     8.9920    13.6220 ha         1 EUM       0.137500
     36 H5          -0.4550     5.6390    13.1990 h1         1 EUM       0.076200
     37 H6          -0.3580     7.3460    13.5510 h1         1 EUM       0.076200
     38 H7          -3.0490     1.3380    16.0810 ha         1 EUM       0.156500
     39 H8          -2.5300     3.7290    15.9630 ha         1 EUM       0.143500
     40 H9          -3.5210     6.0390    13.3540 hn         1 EUM       0.329500
     41 H10         -2.8550    11.0980    12.9180 ha         1 EUM       0.143500
     42 H11         -3.7380     9.4570     9.0530 ha         1 EUM       0.143500
     43 H12         -5.0680    17.7860     9.9500 ha         1 EUM       0.130000
     44 H13         -2.7760     7.3260     9.7430 ha         1 EUM       0.137500
     45 H14         -3.8130     6.1420    16.2940 h1         1 EUM       0.071700
     46 H15         -5.1060     6.3590    15.1270 h1         1 EUM       0.071700
     47 H16         -2.7070    12.8180    11.6050 hn         1 EUM       0.320500
     48 H17         -2.0380    14.7740    10.1770 ha         1 EUM       0.128000
     49 H18         -7.2400    13.9920    11.3100 hn         1 EUM       0.391800
     50 H19         -6.2580    12.7080    10.9700 hn         1 EUM       0.391800
     51 H20         -1.6710     6.0760    11.3780 hn         1 EUM       0.436800
     52 H21         -4.5710    -1.6800    14.3750 hn         1 EUM       0.417300
     53 H22         -5.2240    -0.4460    13.4640 hn         1 EUM       0.417300
     54 H23         -7.1360     2.1820    15.0480 ha         1 EUM       0.156500
     55 H2          -2.6850    17.1120     9.6910 ha         1 EUM       0.134000
@<TRIPOS>BOND
     1     1    14 ar  
     2     1    32 ar  
     3     1    33 1   
     4     2    16 ar  
     5     2    21 ar  
     6     2    55 1   
     7     3    16 ar  
     8     3    22 ar  
     9     3    34 1   
    10     4     6 ar  
    11     4    13 ar  
    12     4    35 1   
    13     5    19 2   
    14     5    20 1   
    15     5    24 1   
    16     6    17 ar  
    17     6    25 1   
    18     7    10 1   
    19     7    25 1   
    20     7    36 1   
    21     7    37 1   
    22     8     9 ar  
    23     8    27 ar  
    24     8    38 1   
    25     9    14 ar  
    26     9    39 1   
    27    10    11 1   
    28    10    26 2   
    29    11    18 1   
    30    11    40 1   
    31    12    20 1   
    32    12    21 ar  
    33    12    22 ar  
    34    13    24 ar  
    35    13    41 1   
    36    14    18 1   
    37    15    17 ar  
    38    15    24 ar  
    39    15    42 1   
    40    16    43 1   
    41    17    44 1   
    42    18    45 1   
    43    18    46 1   
    44    20    47 1   
    45    21    48 1   
    46    22    23 1   
    47    23    49 1   
    48    23    50 1   
    49    25    51 1   
    50    27    28 1   
    51    27    32 ar  
    52    28    29 2   
    53    28    30 1   
    54    28    31 2   
    55    30    52 1   
    56    30    53 1   
    57    32    54 1   
@<TRIPOS>SUBSTRUCTURE
     1 EUM         1 TEMP              0 ****  ****    0 ROOT
