@<TRIPOS>MOLECULE
EUN
   38    41     1     0     0
SMALL
No Charge or Current Charge


@<TRIPOS>ATOM
      1 C21         -0.0190     1.0880    -1.6600 c3         1 EUN      -0.057800
      2 C20         -0.6060     0.1000    -0.6430 ca         1 EUN       0.023700
      3 C10          1.7290    -0.8840    -0.2420 cp         1 EUN       0.017000
      4 C11          2.2830    -1.9330    -1.0030 ca         1 EUN      -0.161000
      5 C12          3.6630    -1.9760    -1.2360 ca         1 EUN       0.351900
      6 C14          4.0180    -0.0290    -0.0120 ca         1 EUN       0.265000
      7 C15          4.9010     0.9420     0.4980 ca         1 EUN      -0.084000
      8 C16          4.4320     2.0110     1.2800 ca         1 EUN      -0.102000
      9 C19          2.6290     0.0880     0.2740 ca         1 EUN      -0.071000
     10 C17          3.0640     2.1190     1.5660 ca         1 EUN      -0.108000
     11 C18          2.1660     1.1620     1.0670 ca         1 EUN      -0.089000
     12 C02         -4.6760    -0.0740     0.3570 cc         1 EUN       0.508900
     13 C04         -2.9900     1.0630    -0.9300 c          1 EUN       0.578600
     14 C05         -2.0040     0.0960    -0.3370 ca         1 EUN      -0.203600
     15 C06         -2.5250    -0.8550     0.5750 ca         1 EUN       0.195400
     16 C07         -1.6610    -1.7800     1.1760 ca         1 EUN      -0.113000
     17 C08         -0.2930    -1.7740     0.8970 ca         1 EUN      -0.057000
     18 C09          0.2560    -0.8400    -0.0010 cp         1 EUN      -0.085000
     19 N03         -4.2640     0.8790    -0.5240 ns         1 EUN      -0.434400
     20 N13          4.5160    -1.0450    -0.7550 nb         1 EUN      -0.658000
     21 N22         -3.8780    -0.9590     0.9410 nd         1 EUN      -0.634100
     22 O23         -2.7280     1.9650    -1.7090 o          1 EUN      -0.538000
     23 H213        -0.5330     1.0100    -2.6250 hc         1 EUN       0.059367
     24 H211        -0.1090     2.1200    -1.3020 hc         1 EUN       0.059367
     25 H212         1.0400     0.9190    -1.8730 hc         1 EUN       0.059367
     26 H111         1.6450    -2.7080    -1.4170 ha         1 EUN       0.127000
     27 H121         4.1020    -2.7790    -1.8270 h4         1 EUN       0.020100
     28 H151         5.9630     0.8620     0.2840 ha         1 EUN       0.131000
     29 H161         5.1300     2.7510     1.6660 ha         1 EUN       0.116000
     30 H171         2.6980     2.9430     2.1750 ha         1 EUN       0.116000
     31 H181         1.1100     1.2640     1.3060 ha         1 EUN       0.122000
     32 H013        -6.4310    -0.8340     1.3450 hc         1 EUN       0.067033
     33 H011        -6.4470     0.9150     1.0640 hc         1 EUN       0.067033
     34 H012        -6.7220    -0.2080    -0.2860 hc         1 EUN       0.067033
     35 H071        -2.0590    -2.5120     1.8760 ha         1 EUN       0.137000
     36 H081         0.3550    -2.4980     1.3860 ha         1 EUN       0.123000
     37 H031        -4.9470     1.5140    -0.9110 hn         1 EUN       0.329500
     38 C01         -6.1490    -0.0480     0.6350 c3         1 EUN      -0.143400
@<TRIPOS>BOND
     1     1     2 1   
     2     1    23 1   
     3     1    24 1   
     4     1    25 1   
     5     2    14 ar  
     6     2    18 ar  
     7     3     4 ar  
     8     3     9 ar  
     9     3    18 1   
    10     4     5 ar  
    11     4    26 1   
    12     5    20 ar  
    13     5    27 1   
    14     6     7 ar  
    15     6     9 ar  
    16     6    20 ar  
    17     7     8 ar  
    18     7    28 1   
    19     8    10 ar  
    20     8    29 1   
    21     9    11 ar  
    22    10    11 ar  
    23    10    30 1   
    24    11    31 1   
    25    12    19 1   
    26    12    21 2   
    27    12    38 1   
    28    13    14 1   
    29    13    19 1   
    30    13    22 2   
    31    14    15 ar  
    32    15    16 ar  
    33    15    21 1   
    34    16    17 ar  
    35    16    35 1   
    36    17    18 ar  
    37    17    36 1   
    38    19    37 1   
    39    32    38 1   
    40    33    38 1   
    41    34    38 1   
@<TRIPOS>SUBSTRUCTURE
     1 EUN         1 TEMP              0 ****  ****    0 ROOT
