@<TRIPOS>MOLECULE
EUN
   38    41     1     0     0
SMALL
bcc


@<TRIPOS>ATOM
      1 C21         -0.0060     1.0810    -1.6550 c3         1 EUN      -0.057800
      2 C20         -0.5950     0.1200    -0.6610 ca         1 EUN       0.023700
      3 C10          1.6910    -0.8700    -0.2750 cp         1 EUN       0.017000
      4 C11          2.2370    -1.9020    -0.9910 ca         1 EUN      -0.244300
      5 C12          3.6330    -1.9520    -1.1830 ca         1 EUN       0.417200
      6 C14          3.9600    -0.0380     0.0090 ca         1 EUN       0.395600
      7 C15          4.8600     0.9230     0.5250 ca         1 EUN      -0.167300
      8 C16          4.4010     1.9750     1.2680 ca         1 EUN      -0.120000
      9 C19          2.5720     0.1060     0.2670 ca         1 EUN      -0.136300
     10 C17          3.0240     2.1130     1.5340 ca         1 EUN      -0.126000
     11 C18          2.1290     1.1980     1.0460 ca         1 EUN      -0.107000
     12 C02         -4.6400    -0.0700     0.3630 cc         1 EUN       0.508900
     13 C04         -2.9160     1.0720    -0.9210 c          1 EUN       0.721100
     14 C05         -1.9750     0.1070    -0.3470 ca         1 EUN      -0.203600
     15 C06         -2.5020    -0.8430     0.5520 ca         1 EUN       0.195400
     16 C07         -1.6470    -1.7760     1.1460 ca         1 EUN      -0.131000
     17 C08         -0.3070    -1.7530     0.8560 ca         1 EUN      -0.075000
     18 C09          0.2280    -0.8130    -0.0340 cp         1 EUN      -0.085000
     19 N03         -4.2190     0.8860    -0.5070 ns         1 EUN      -0.501400
     20 N13          4.4660    -1.0650    -0.7150 nb         1 EUN      -0.658000
     21 N22         -3.8330    -0.9160     0.8930 nd         1 EUN      -0.634100
     22 O23         -2.6560     1.9820    -1.6870 o          1 EUN      -0.613500
     23 H213        -0.5310     1.0400    -2.6070 hc         1 EUN       0.059367
     24 H211        -0.0650     2.1110    -1.3040 hc         1 EUN       0.059367
     25 H212         1.0390     0.8530    -1.8460 hc         1 EUN       0.059367
     26 H111         1.6140    -2.6730    -1.4230 ha         1 EUN       0.145000
     27 H121         4.0570    -2.7690    -1.7580 h4         1 EUN       0.020100
     28 H151         5.9150     0.8020     0.3150 ha         1 EUN       0.149000
     29 H161         5.0960     2.7070     1.6590 ha         1 EUN       0.134000
     30 H171         2.6740     2.9460     2.1280 ha         1 EUN       0.134000
     31 H181         1.0750     1.3090     1.2620 ha         1 EUN       0.140000
     32 H013        -6.3090    -0.8400     1.4270 hc         1 EUN       0.067033
     33 H011        -6.4370     0.8810     1.0240 hc         1 EUN       0.067033
     34 H012        -6.6710    -0.3310    -0.2290 hc         1 EUN       0.067033
     35 H071        -2.0600    -2.5030     1.8330 ha         1 EUN       0.155000
     36 H081         0.3550    -2.4690     1.3270 ha         1 EUN       0.141000
     37 H031        -4.8990     1.5350    -0.8840 hn         1 EUN       0.329500
     38 C01         -6.0980    -0.0920     0.6680 c3         1 EUN      -0.143400
@<TRIPOS>BOND
     1     1     2 1   
     2     1    23 1   
     3     1    24 1   
     4     1    25 1   
     5     2    14 ar  
     6     2    18 ar  
     7     3     4 ar  
     8     3     9 ar  
     9     3    18 1   
    10     4     5 ar  
    11     4    26 1   
    12     5    20 ar  
    13     5    27 1   
    14     6     7 ar  
    15     6     9 ar  
    16     6    20 ar  
    17     7     8 ar  
    18     7    28 1   
    19     8    10 ar  
    20     8    29 1   
    21     9    11 ar  
    22    10    11 ar  
    23    10    30 1   
    24    11    31 1   
    25    12    19 1   
    26    12    21 2   
    27    12    38 1   
    28    13    14 1   
    29    13    19 1   
    30    13    22 2   
    31    14    15 ar  
    32    15    16 ar  
    33    15    21 1   
    34    16    17 ar  
    35    16    35 1   
    36    17    18 ar  
    37    17    36 1   
    38    19    37 1   
    39    32    38 1   
    40    33    38 1   
    41    34    38 1   
@<TRIPOS>SUBSTRUCTURE
     1 EUN         1 TEMP              0 ****  ****    0 ROOT
