@<TRIPOS>MOLECULE
EUO
   35    37     1     0     0
SMALL
No Charge or Current Charge


@<TRIPOS>ATOM
      1 C10          7.1730    -6.1150    68.6260 ca         1 EUO      -0.033200
      2 C13          8.6980    -5.0310    67.3780 cc         1 EUO      -0.227200
      3 C20          2.4670    -3.1590    62.6890 c3         1 EUO      -0.320100
      4 C01          2.7300    -2.7120    65.4830 ca         1 EUO       0.046900
      5 C03          1.3970    -3.2560    67.2700 ca         1 EUO       0.385900
      6 C04          2.4580    -3.9650    67.8460 ca         1 EUO      -0.260000
      7 C05          3.6880    -4.0170    67.1470 cp         1 EUO       0.222500
      8 C07          4.8980    -4.7460    67.6630 cp         1 EUO      -0.203500
      9 C08          6.2040    -4.4360    67.1750 ca         1 EUO       0.001000
     10 C09          7.3040    -5.1400    67.6830 ca         1 EUO      -0.115800
     11 C11          5.9180    -6.4630    69.1350 ca         1 EUO      -0.137000
     12 C12          4.7840    -5.7770    68.6500 ca         1 EUO      -0.068000
     13 C14          9.3610    -5.9640    68.1660 cd         1 EUO      -0.166100
     14 C18         -0.2690    -3.7320    69.1660 c3         1 EUO       0.218100
     15 N02          1.5220    -2.6310    66.0900 nb         1 EUO      -0.205000
     16 N06          3.8060    -3.3780    65.9640 nb         1 EUO      -0.200000
     17 N15          8.4070    -6.6540    68.9570 na         1 EUO      -0.220700
     18 O19          4.3360    -1.5870    63.6350 o          1 EUO      -0.505500
     19 O21          1.8940    -0.8290    63.7440 o          1 EUO      -0.505500
     20 S16          2.9140    -1.8820    63.8710 sy         1 EUO       0.990100
     21 H1           9.1670    -4.3520    66.6680 ha         1 EUO       0.209000
     22 H2           3.1560    -4.0000    62.8170 h1         1 EUO       0.106700
     23 H3           1.4360    -3.4680    62.8920 h1         1 EUO       0.106700
     24 H4           2.5530    -2.7370    61.6820 h1         1 EUO       0.106700
     25 H5           2.3400    -4.4480    68.8080 ha         1 EUO       0.132000
     26 H6           6.3620    -3.6620    66.4270 ha         1 EUO       0.134000
     27 H7           5.8150    -7.2460    69.8830 ha         1 EUO       0.116000
     28 H8           3.8100    -6.0630    69.0360 ha         1 EUO       0.109000
     29 H9          10.4250    -6.1870    68.2230 h4         1 EUO       0.214000
     30 H10         -1.3140    -3.4750    69.3810 h1         1 EUO       0.042700
     31 H11         -0.1810    -4.8270    69.1400 h1         1 EUO       0.042700
     32 H12          0.3560    -3.3510    69.9850 h1         1 EUO       0.042700
     33 H13          8.5880    -7.3930    69.6300 hn         1 EUO       0.351000
     34 H14         -0.5390    -2.6020    67.3610 hn         1 EUO       0.516000
     35 N17          0.1530    -3.1500    67.8790 nu         1 EUO      -0.925100
@<TRIPOS>BOND
     1     1    10 ar  
     2     1    11 ar  
     3     1    17 1   
     4     2    10 1   
     5     2    13 2   
     6     2    21 1   
     7     3    20 1   
     8     3    22 1   
     9     3    23 1   
    10     3    24 1   
    11     4    15 ar  
    12     4    16 ar  
    13     4    20 1   
    14     5     6 ar  
    15     5    15 ar  
    16     5    35 1   
    17     6     7 ar  
    18     6    25 1   
    19     7     8 1   
    20     7    16 ar  
    21     8     9 ar  
    22     8    12 ar  
    23     9    10 ar  
    24     9    26 1   
    25    11    12 ar  
    26    11    27 1   
    27    12    28 1   
    28    13    17 1   
    29    13    29 1   
    30    14    30 1   
    31    14    31 1   
    32    14    32 1   
    33    14    35 1   
    34    17    33 1   
    35    18    20 2   
    36    19    20 2   
    37    34    35 1   
@<TRIPOS>SUBSTRUCTURE
     1 EUO         1 TEMP              0 ****  ****    0 ROOT
