@<TRIPOS>MOLECULE
EUO
   35    37     1     0     0
SMALL
bcc


@<TRIPOS>ATOM
      1 C10          6.9770    -6.0890    68.4930 ca         1 EUO      -0.033200
      2 C13          8.4140    -5.2530    66.9300 cc         1 EUO      -0.177200
      3 C20          3.8540    -2.9250    63.0350 c3         1 EUO      -0.209300
      4 C01          2.4380    -2.9620    65.5000 ca         1 EUO       0.572900
      5 C03          1.2520    -3.2710    67.3730 ca         1 EUO       0.714200
      6 C04          2.3610    -3.9520    67.9130 ca         1 EUO      -0.408600
      7 C05          3.4870    -4.0990    67.1260 cp         1 EUO       0.550800
      8 C07          4.6980    -4.7980    67.5870 cp         1 EUO      -0.203500
      9 C08          5.8980    -4.6010    66.9150 ca         1 EUO      -0.017000
     10 C09          7.0520    -5.2400    67.3650 ca         1 EUO      -0.115800
     11 C11          5.7770    -6.3100    69.1680 ca         1 EUO      -0.155000
     12 C12          4.6540    -5.6600    68.7060 ca         1 EUO      -0.086000
     13 C14          9.0860    -6.0790    67.7810 cd         1 EUO      -0.116100
     14 C18         -0.1150    -3.5540    69.3930 c3         1 EUO       0.218100
     15 N02          1.3070    -2.7710    66.1250 nb         1 EUO      -0.731000
     16 N06          3.5230    -3.5750    65.8810 nb         1 EUO      -0.726000
     17 N15          8.2240    -6.5790    68.7180 na         1 EUO      -0.170400
     18 O19          2.7670    -0.7630    64.0940 o          1 EUO      -0.576300
     19 O21          1.2460    -2.5270    63.1730 o          1 EUO      -0.576300
     20 S16          2.4770    -2.1770    63.8720 sy         1 EUO       1.020900
     21 H1           8.8370    -4.7170    66.0950 ha         1 EUO       0.159000
     22 H2           4.7750    -2.7140    63.5700 h1         1 EUO       0.106700
     23 H3           3.6960    -3.9970    62.9510 h1         1 EUO       0.106700
     24 H4           3.8830    -2.4740    62.0440 h1         1 EUO       0.106700
     25 H5           2.3310    -4.3300    68.9240 ha         1 EUO       0.150000
     26 H6           5.9380    -3.9470    66.0540 ha         1 EUO       0.152000
     27 H7           5.7210    -6.9740    70.0210 ha         1 EUO       0.134000
     28 H8           3.7160    -5.8420    69.2110 ha         1 EUO       0.127000
     29 H9          10.1290    -6.3550    67.7960 h4         1 EUO       0.164000
     30 H10         -1.1220    -3.2710    69.6840 h1         1 EUO       0.042700
     31 H11         -0.0340    -4.6400    69.4610 h1         1 EUO       0.042700
     32 H12          0.5820    -3.1110    70.1070 h1         1 EUO       0.042700
     33 H13          8.4790    -7.2190    69.4530 hn         1 EUO       0.300700
     34 H14         -0.6110    -2.5730    67.5810 hn         1 EUO       0.460800
     35 N17          0.1200    -3.0830    68.0510 nu         1 EUO      -0.869900
@<TRIPOS>BOND
     1     1    10 ar  
     2     1    11 ar  
     3     1    17 1   
     4     2    10 1   
     5     2    13 2   
     6     2    21 1   
     7     3    20 1   
     8     3    22 1   
     9     3    23 1   
    10     3    24 1   
    11     4    15 ar  
    12     4    16 ar  
    13     4    20 1   
    14     5     6 ar  
    15     5    15 ar  
    16     5    35 1   
    17     6     7 ar  
    18     6    25 1   
    19     7     8 1   
    20     7    16 ar  
    21     8     9 ar  
    22     8    12 ar  
    23     9    10 ar  
    24     9    26 1   
    25    11    12 ar  
    26    11    27 1   
    27    12    28 1   
    28    13    17 1   
    29    13    29 1   
    30    14    30 1   
    31    14    31 1   
    32    14    32 1   
    33    14    35 1   
    34    17    33 1   
    35    18    20 2   
    36    19    20 2   
    37    34    35 1   
@<TRIPOS>SUBSTRUCTURE
     1 EUO         1 TEMP              0 ****  ****    0 ROOT
