@<TRIPOS>MOLECULE
EUP
   18    17     1     0     0
SMALL
No Charge or Current Charge


@<TRIPOS>ATOM
      1 NAD          0.4470     2.0270     0.3680 n8         1 EUP      -0.977200
      2 CAE          0.3960     0.5140     0.5100 c3         1 EUP      -0.016500
      3 CAN         -0.8480    -0.1100    -0.2150 c3         1 EUP       0.161300
      4 OAO         -0.8760    -1.5350     0.0060 oh         1 EUP      -0.743000
      5 CAP         -2.2120     0.5100     0.2450 c3         1 EUP       0.141800
      6 NAQ         -3.3870    -0.1220    -0.4010 n8         1 EUP      -0.994200
      7 CAF          1.7150    -0.2750     0.1220 c          1 EUP       0.722000
      8 O            2.6290     0.3210    -0.4350 o          1 EUP      -0.711500
      9 H16          0.7400     2.2670    -0.5870 hn         1 EUP       0.373500
     10 H17          0.2540     0.3220     1.5830 h1         1 EUP       0.049700
     11 H18         -0.7340     0.0830    -1.2910 h1         1 EUP       0.024700
     12 H19          0.0800    -1.7870     0.1540 ho         1 EUP       0.517000
     13 H20         -2.3120     0.3780     1.3310 h1         1 EUP       0.012200
     14 H21         -2.2410     1.5860     0.0280 h1         1 EUP       0.012200
     15 H22         -3.2770    -1.1370    -0.2890 hn         1 EUP       0.383000
     16 H23         -4.2270     0.1000     0.1450 hn         1 EUP       0.383000
     17 H2          -0.4970     2.4200     0.4530 hn         1 EUP       0.373500
     18 OXT          1.7460    -1.4770     0.3590 o          1 EUP      -0.711500
@<TRIPOS>BOND
     1     1     2 1   
     2     1     9 1   
     3     1    17 1   
     4     2     3 1   
     5     2     7 1   
     6     2    10 1   
     7     3     4 1   
     8     3     5 1   
     9     3    11 1   
    10     4    12 1   
    11     5     6 1   
    12     5    13 1   
    13     5    14 1   
    14     6    15 1   
    15     6    16 1   
    16     7     8 1   
    17     7    18 1   
@<TRIPOS>SUBSTRUCTURE
     1 EUP         1 TEMP              0 ****  ****    0 ROOT
