@<TRIPOS>MOLECULE
EUP
   18    17     1     0     0
SMALL
bcc


@<TRIPOS>ATOM
      1 NAD          0.4660     1.9490     0.3320 n8         1 EUP      -0.866800
      2 CAE          0.3630     0.5150     0.5130 c3         1 EUP      -0.016500
      3 CAN         -0.8530    -0.1480    -0.1820 c3         1 EUP       0.138100
      4 OAO         -0.9030    -1.5270     0.1020 oh         1 EUP      -0.680800
      5 CAP         -2.1740     0.4610     0.2610 c3         1 EUP       0.141800
      6 NAQ         -3.2900    -0.1820    -0.4140 n8         1 EUP      -0.883800
      7 CAF          1.6700    -0.1880     0.0750 c          1 EUP       0.932600
      8 O            2.6270     0.4960    -0.2980 o          1 EUP      -0.816800
      9 H16          0.6100     2.1690    -0.6450 hn         1 EUP       0.318300
     10 H17          0.2480     0.3250     1.5900 h1         1 EUP       0.049700
     11 H18         -0.7530     0.0250    -1.2700 h1         1 EUP       0.024700
     12 H19          0.0510    -1.7860     0.1530 ho         1 EUP       0.478000
     13 H20         -2.2290     0.4090     1.3610 h1         1 EUP       0.012200
     14 H21         -2.1940     1.5200    -0.0040 h1         1 EUP       0.012200
     15 H22         -3.3440    -1.1490    -0.1210 hn         1 EUP       0.327800
     16 H23         -4.1550     0.2460    -0.1120 hn         1 EUP       0.327800
     17 H2          -0.3930     2.4040     0.6090 hn         1 EUP       0.318300
     18 OXT          1.6490    -1.4520     0.1330 o          1 EUP      -0.816800
@<TRIPOS>BOND
     1     1     2 1   
     2     1     9 1   
     3     1    17 1   
     4     2     3 1   
     5     2     7 1   
     6     2    10 1   
     7     3     4 1   
     8     3     5 1   
     9     3    11 1   
    10     4    12 1   
    11     5     6 1   
    12     5    13 1   
    13     5    14 1   
    14     6    15 1   
    15     6    16 1   
    16     7     8 1   
    17     7    18 1   
@<TRIPOS>SUBSTRUCTURE
     1 EUP         1 TEMP              0 ****  ****    0 ROOT
