@<TRIPOS>MOLECULE
EUQ
   71    74     1     0     0
SMALL
No Charge or Current Charge


@<TRIPOS>ATOM
      1 C4          -5.2110    -0.8840     0.3650 ca         1 EUQ       0.444900
      2 C5          -4.9700    -1.7620     1.4390 ca         1 EUQ      -0.114000
      3 C6          -3.7230    -1.6690     2.0760 ca         1 EUQ       0.181900
      4 N1          -2.8010    -0.7680     1.6860 nb         1 EUQ      -0.255000
      5 N3          -4.2980     0.0230    -0.0160 nb         1 EUQ      -0.328000
      6 C2          -3.1460     0.0390     0.6670 ca         1 EUQ       0.427900
      7 CAA         13.2340    -1.0740    -3.4630 c3         1 EUQ      -0.081100
      8 CAB        -11.6600    -0.4240     0.5070 c3         1 EUQ       0.092300
      9 CAF         12.1120    -1.9290    -2.8330 c3         1 EUQ      -0.156400
     10 CAG         -6.6790     0.8050    -3.5940 ca         1 EUQ      -0.067000
     11 CAH         -8.0570     1.0260    -3.6800 ca         1 EUQ      -0.143000
     12 CAI         -6.1490     0.1580    -2.4700 ca         1 EUQ      -0.133000
     13 CAJ         -8.9050     0.5910    -2.6510 ca         1 EUQ      -0.067000
     14 CAK          0.6810     1.8460     2.3860 ca         1 EUQ      -0.067000
     15 CAL          1.1720     2.4380     0.0830 ca         1 EUQ      -0.067000
     16 CAM         -0.5830     1.3700     1.9930 ca         1 EUQ      -0.153000
     17 CAN         -0.0940     1.9620    -0.3060 ca         1 EUQ      -0.153000
     18 CAP          7.0070     0.8560     0.6200 cc         1 EUQ      -0.192000
     19 CAQ         10.1400    -0.3420     0.0890 c3         1 EUQ       0.086000
     20 CAR          8.7230    -0.9510     0.0930 c3         1 EUQ       0.054600
     21 CAT          5.3360     2.2500     2.0280 c3         1 EUQ       0.144500
     22 CBD         11.0510    -1.0580    -2.1510 c          1 EUQ       0.597100
     23 CBG          1.5670     2.3800     1.4320 ca         1 EUQ      -0.116300
     24 CBH         -0.9740     1.4140     0.6410 ca         1 EUQ       0.319000
     25 CBI          6.3540     1.1520     1.7820 cd         1 EUQ       0.200300
     26 CBK         -6.9820    -0.2650    -1.4140 ca         1 EUQ       0.361000
     27 CBL         -8.3860    -0.0680    -1.5050 ca         1 EUQ      -0.205600
     28 NAV          6.7560     0.2710     2.7680 nd         1 EUQ      -0.362000
     29 NAW          7.6320    -0.5600     2.2700 nc         1 EUQ      -0.210800
     30 NAY        -10.6090    -0.0580    -0.4460 ns         1 EUQ      -0.491900
     31 NAZ          3.9620     1.8730     1.6190 n7         1 EUQ      -0.852400
     32 NBA         11.0740    -1.0780    -0.7750 ns         1 EUQ      -0.511900
     33 NBB         -2.2270     0.9670     0.2060 nu         1 EUQ      -0.925900
     34 NBC         -6.4350    -0.9020    -0.2970 nu         1 EUQ      -0.941900
     35 NBN          7.7930    -0.2150     0.9610 na         1 EUQ       0.123800
     36 OAC         10.2240    -0.4140    -2.7800 o          1 EUQ      -0.602100
     37 OAD         -8.9940    -1.3600     0.4440 o          1 EUQ      -0.629100
     38 Cl5         -6.1670    -2.9450     1.9780 cl         1 EUQ      -0.167000
     39 H1          -3.4570    -2.3190     2.9080 h4         1 EUQ       0.034100
     40 H2          13.7410    -0.4740    -2.6970 hc         1 EUQ       0.044033
     41 H3          13.9810    -1.7160    -3.9450 hc         1 EUQ       0.044033
     42 H4          12.8270    -0.3940    -4.2210 hc         1 EUQ       0.044033
     43 H5         -12.5850     0.1120     0.2580 h1         1 EUQ       0.043700
     44 H6         -11.8440    -1.5050     0.4570 h1         1 EUQ       0.043700
     45 H7         -11.3470    -0.1530     1.5240 h1         1 EUQ       0.043700
     46 H8          11.6340    -2.5080    -3.6310 hc         1 EUQ       0.057200
     47 H9          12.5680    -2.6090    -2.1040 hc         1 EUQ       0.057200
     48 H10         -6.0220     1.1280    -4.4000 ha         1 EUQ       0.117000
     49 H11         -8.4740     1.5240    -4.5530 ha         1 EUQ       0.119000
     50 H12         -5.0820    -0.0280    -2.4360 ha         1 EUQ       0.145000
     51 H13         -9.9720     0.7570    -2.7740 ha         1 EUQ       0.111000
     52 H14          0.9680     1.8040     3.4350 ha         1 EUQ       0.114500
     53 H15          1.8460     2.8500    -0.6650 ha         1 EUQ       0.114500
     54 H16         -1.2570     0.9880     2.7520 ha         1 EUQ       0.129000
     55 H17         -0.3830     2.0130    -1.3520 ha         1 EUQ       0.129000
     56 H18          6.9710     1.2980    -0.3660 h4         1 EUQ       0.172000
     57 H19         10.0870     0.7020    -0.2500 h1         1 EUQ       0.071700
     58 H20         10.5360    -0.3410     1.1140 h1         1 EUQ       0.071700
     59 H21          8.3180    -0.9490    -0.9260 h1         1 EUQ       0.076700
     60 H22          8.7750    -1.9920     0.4330 h1         1 EUQ       0.076700
     61 H23          3.1650     3.8100     1.2840 h1         1 EUQ       0.033700
     62 H24          2.9040     3.1760     2.9160 h1         1 EUQ       0.033700
     63 H25          5.3560     2.5070     3.0960 h1         1 EUQ       0.039200
     64 H26          5.6610     3.1440     1.4770 h1         1 EUQ       0.039200
     65 H27        -10.8240     0.6210    -1.1650 hn         1 EUQ       0.321500
     66 H28          3.6920     1.0340     2.1470 hn         1 EUQ       0.428000
     67 H30         11.7960    -1.6420    -0.3400 hn         1 EUQ       0.319500
     68 H31         -2.5090     1.3580    -0.6910 hn         1 EUQ       0.508000
     69 H32         -7.1620    -1.3800     0.2510 hn         1 EUQ       0.554000
     70 CAS          2.9340     2.8990     1.8530 c3         1 EUQ       0.208100
     71 CBE         -9.3240    -0.5510    -0.4140 c          1 EUQ       0.616700
@<TRIPOS>BOND
     1     1     2 ar  
     2     1     5 ar  
     3     1    34 1   
     4     2     3 ar  
     5     2    38 1   
     6     3     4 ar  
     7     3    39 1   
     8     4     6 ar  
     9     5     6 ar  
    10     6    33 1   
    11     7     9 1   
    12     7    40 1   
    13     7    41 1   
    14     7    42 1   
    15     8    30 1   
    16     8    43 1   
    17     8    44 1   
    18     8    45 1   
    19     9    22 1   
    20     9    46 1   
    21     9    47 1   
    22    10    11 ar  
    23    10    12 ar  
    24    10    48 1   
    25    11    13 ar  
    26    11    49 1   
    27    12    26 ar  
    28    12    50 1   
    29    13    27 ar  
    30    13    51 1   
    31    14    16 ar  
    32    14    23 ar  
    33    14    52 1   
    34    15    17 ar  
    35    15    23 ar  
    36    15    53 1   
    37    16    24 ar  
    38    16    54 1   
    39    17    24 ar  
    40    17    55 1   
    41    18    25 2   
    42    18    35 1   
    43    18    56 1   
    44    19    20 1   
    45    19    32 1   
    46    19    57 1   
    47    19    58 1   
    48    20    35 1   
    49    20    59 1   
    50    20    60 1   
    51    21    25 1   
    52    21    31 1   
    53    21    63 1   
    54    21    64 1   
    55    22    32 1   
    56    22    36 2   
    57    23    70 1   
    58    24    33 1   
    59    25    28 1   
    60    26    27 ar  
    61    26    34 1   
    62    27    71 1   
    63    28    29 2   
    64    29    35 1   
    65    30    65 1   
    66    30    71 1   
    67    31    66 1   
    68    31    70 1   
    69    32    67 1   
    70    33    68 1   
    71    34    69 1   
    72    37    71 2   
    73    61    70 1   
    74    62    70 1   
@<TRIPOS>SUBSTRUCTURE
     1 EUQ         1 TEMP              0 ****  ****    0 ROOT
