@<TRIPOS>MOLECULE
EUQ
   71    74     1     0     0
SMALL
abcg2


@<TRIPOS>ATOM
      1 C4          -5.4280    -0.7720     0.6640 ca         1 EUQ       0.444900
      2 C5          -5.1700    -1.4720     1.8670 ca         1 EUQ      -0.114000
      3 C6          -3.9690    -1.2400     2.4830 ca         1 EUQ       0.181900
      4 N1          -3.0520    -0.4070     1.9980 nb         1 EUQ      -0.255000
      5 N3          -4.5140     0.0550     0.1910 nb         1 EUQ      -0.328000
      6 C2          -3.3700     0.2000     0.8640 ca         1 EUQ       0.427900
      7 CAA         14.3190    -0.9520    -1.8540 c3         1 EUQ      -0.081100
      8 CAB        -11.5650    -0.2530     0.8160 c3         1 EUQ       0.092300
      9 CAF         12.9460    -1.5080    -2.2170 c3         1 EUQ      -0.156400
     10 CAG         -6.7190     0.5970    -3.3450 ca         1 EUQ      -0.067000
     11 CAH         -8.0860     0.7440    -3.5240 ca         1 EUQ      -0.143000
     12 CAI         -6.2100     0.0530    -2.1780 ca         1 EUQ      -0.133000
     13 CAJ         -8.9410     0.3450    -2.5120 ca         1 EUQ      -0.067000
     14 CAK          0.6750     1.6630     2.1270 ca         1 EUQ      -0.067000
     15 CAL          0.8230     2.5620    -0.0700 ca         1 EUQ      -0.067000
     16 CAM         -0.6170     1.2150     1.8830 ca         1 EUQ      -0.153000
     17 CAN         -0.4630     2.1290    -0.3330 ca         1 EUQ      -0.153000
     18 CAP          7.0760     1.0510    -0.2230 cc         1 EUQ      -0.192000
     19 CAQ          9.8620    -0.9220    -0.0930 c3         1 EUQ       0.086000
     20 CAR          8.6420    -0.7620    -1.0020 c3         1 EUQ       0.054600
     21 CAT          5.1460     2.1040     1.1590 c3         1 EUQ       0.144500
     22 CBD         11.8350    -0.7410    -1.5360 c          1 EUQ       0.597100
     23 CBG          1.4190     2.3380     1.1690 ca         1 EUQ      -0.116300
     24 CBH         -1.2030     1.4400     0.6370 ca         1 EUQ       0.319000
     25 CBI          6.0490     1.0190     0.6840 cd         1 EUQ       0.200300
     26 CBK         -7.0650    -0.3520    -1.1510 ca         1 EUQ       0.361000
     27 CBL         -8.4560    -0.1890    -1.3190 ca         1 EUQ      -0.205600
     28 NAV          5.9380    -0.2520     1.1290 nd         1 EUQ      -0.362000
     29 NAW          6.8260    -0.9860     0.5520 nc         1 EUQ      -0.210800
     30 NAY        -10.5370     0.0860    -0.1400 ns         1 EUQ      -0.491900
     31 NAZ          3.7610     1.8050     0.8280 n7         1 EUQ      -0.852400
     32 NBA         10.9810    -1.4820    -0.8040 ns         1 EUQ      -0.511900
     33 NBB         -2.4920     1.0560     0.2760 nu         1 EUQ      -0.925900
     34 NBC         -6.6040    -0.9470     0.0220 nu         1 EUQ      -0.941900
     35 NBN          7.5190    -0.2180    -0.2680 na         1 EUQ       0.123800
     36 OAC         11.7290     0.4740    -1.6370 o          1 EUQ      -0.602100
     37 OAD         -9.1840    -1.6030     0.4560 o          1 EUQ      -0.629100
     38 CL5         -6.3200    -2.5670     2.5440 cl         1 EUQ      -0.167000
     39 H1          -3.7280    -1.7460     3.4110 h4         1 EUQ       0.034100
     40 H2          14.5150    -1.0490    -0.7860 hc         1 EUQ       0.044033
     41 H3          15.0990    -1.4950    -2.3860 hc         1 EUQ       0.044033
     42 H4          14.4040     0.1000    -2.1200 hc         1 EUQ       0.044033
     43 H5         -12.3860     0.4480     0.6940 h1         1 EUQ       0.043700
     44 H6         -11.9460    -1.2600     0.6490 h1         1 EUQ       0.043700
     45 H7         -11.2010    -0.1880     1.8420 h1         1 EUQ       0.043700
     46 H8          12.7890    -1.4230    -3.2960 hc         1 EUQ       0.057200
     47 H9          12.8960    -2.5710    -1.9770 hc         1 EUQ       0.057200
     48 H10         -6.0330     0.8920    -4.1290 ha         1 EUQ       0.117000
     49 H11         -8.4830     1.1520    -4.4430 ha         1 EUQ       0.119000
     50 H12         -5.1440    -0.0660    -2.0700 ha         1 EUQ       0.145000
     51 H13        -10.0090     0.4350    -2.6640 ha         1 EUQ       0.111000
     52 H14          1.1080     1.4760     3.1040 ha         1 EUQ       0.114500
     53 H15          1.3680     3.0870    -0.8450 ha         1 EUQ       0.114500
     54 H16         -1.1550     0.6920     2.6550 ha         1 EUQ       0.129000
     55 H17         -0.9030     2.3210    -1.3050 ha         1 EUQ       0.129000
     56 H18          7.5000     1.8430    -0.8170 h4         1 EUQ       0.172000
     57 H19         10.1390     0.0450     0.3290 h1         1 EUQ       0.071700
     58 H20          9.6170    -1.5850     0.7350 h1         1 EUQ       0.071700
     59 H21          8.8610    -0.0860    -1.8260 h1         1 EUQ       0.076700
     60 H22          8.3420    -1.7220    -1.4180 h1         1 EUQ       0.076700
     61 H23          3.0300     3.7400     1.0080 h1         1 EUQ       0.033700
     62 H24          2.9930     2.8480     2.5220 h1         1 EUQ       0.033700
     63 H25          5.2930     2.2500     2.2400 h1         1 EUQ       0.039200
     64 H26          5.4340     3.0440     0.6820 h1         1 EUQ       0.039200
     65 H27        -10.6400     0.9390    -0.6630 hn         1 EUQ       0.321500
     66 H28          3.5420     0.8780     1.1760 hn         1 EUQ       0.428000
     67 H30         11.1110    -2.4790    -0.7670 hn         1 EUQ       0.319500
     68 H31         -2.8150     1.4110    -0.6110 hn         1 EUQ       0.508000
     69 H32         -7.3120    -1.5030     0.4930 hn         1 EUQ       0.554000
     70 CAS          2.8380     2.7510     1.4360 c3         1 EUQ       0.208100
     71 CBE         -9.4150    -0.6290    -0.2620 c          1 EUQ       0.616700
@<TRIPOS>BOND
     1     1     2 ar  
     2     1     5 ar  
     3     1    34 1   
     4     2     3 ar  
     5     2    38 1   
     6     3     4 ar  
     7     3    39 1   
     8     4     6 ar  
     9     5     6 ar  
    10     6    33 1   
    11     7     9 1   
    12     7    40 1   
    13     7    41 1   
    14     7    42 1   
    15     8    30 1   
    16     8    43 1   
    17     8    44 1   
    18     8    45 1   
    19     9    22 1   
    20     9    46 1   
    21     9    47 1   
    22    10    11 ar  
    23    10    12 ar  
    24    10    48 1   
    25    11    13 ar  
    26    11    49 1   
    27    12    26 ar  
    28    12    50 1   
    29    13    27 ar  
    30    13    51 1   
    31    14    16 ar  
    32    14    23 ar  
    33    14    52 1   
    34    15    17 ar  
    35    15    23 ar  
    36    15    53 1   
    37    16    24 ar  
    38    16    54 1   
    39    17    24 ar  
    40    17    55 1   
    41    18    25 2   
    42    18    35 1   
    43    18    56 1   
    44    19    20 1   
    45    19    32 1   
    46    19    57 1   
    47    19    58 1   
    48    20    35 1   
    49    20    59 1   
    50    20    60 1   
    51    21    25 1   
    52    21    31 1   
    53    21    63 1   
    54    21    64 1   
    55    22    32 1   
    56    22    36 2   
    57    23    70 1   
    58    24    33 1   
    59    25    28 1   
    60    26    27 ar  
    61    26    34 1   
    62    27    71 1   
    63    28    29 2   
    64    29    35 1   
    65    30    65 1   
    66    30    71 1   
    67    31    66 1   
    68    31    70 1   
    69    32    67 1   
    70    33    68 1   
    71    34    69 1   
    72    37    71 2   
    73    61    70 1   
    74    62    70 1   
@<TRIPOS>SUBSTRUCTURE
     1 EUQ         1 TEMP              0 ****  ****    0 ROOT
