@<TRIPOS>MOLECULE
EUR
   42    44     1     0     0
SMALL
No Charge or Current Charge


@<TRIPOS>ATOM
      1 O01         -2.8820     3.0770    -2.7040 oh         1 EUR      -0.673000
      2 C02         -3.9520     3.3100    -1.7550 c3         1 EUR       0.130300
      3 C03         -4.1230     2.1790    -0.7520 cc         1 EUR       0.419800
      4 N04         -5.0730     2.1040     0.1670 nd         1 EUR      -0.669000
      5 C05         -4.8470     0.9260     0.8490 cd         1 EUR       0.400000
      6 Cl1         -5.8830     0.4400     2.1570 cl         1 EUR      -0.106000
      7 C07         -3.7490     0.2650     0.3500 cc         1 EUR      -0.279600
      8 N08         -3.2960     1.0860    -0.6800 na         1 EUR      -0.261500
      9 C09         -3.2400    -1.0260     0.8650 c          1 EUR       0.659700
     10 O10         -3.7290    -1.6570     1.7880 o          1 EUR      -0.555100
     11 N11         -2.1280    -1.4710     0.1960 ns         1 EUR      -0.523900
     12 C12         -1.4060    -2.6990     0.5230 c3         1 EUR       0.152300
     13 C13         -0.0590    -2.7320    -0.1830 ca         1 EUR      -0.145300
     14 C14          0.0860    -3.4470    -1.3890 ca         1 EUR      -0.065000
     15 C15          1.3250    -3.4720    -2.0510 ca         1 EUR      -0.115000
     16 C16          2.4250    -2.7770    -1.5220 ca         1 EUR       0.134000
     17 Cl2          3.9630    -2.8130    -2.3840 cl         1 EUR      -0.152000
     18 C18          2.2900    -2.0480    -0.3250 ca         1 EUR       0.041100
     19 O19          3.3740    -1.3560     0.1770 os         1 EUR      -0.216200
     20 C20          3.3420     0.0000     0.4210 ca         1 EUR       0.142100
     21 C21          2.4620     0.8500    -0.2790 ca         1 EUR      -0.161000
     22 C22          2.4530     2.2250    -0.0020 ca         1 EUR       0.149000
     23 Cl3          1.3450     3.2810    -0.8670 cl         1 EUR      -0.196000
     24 C24          3.3230     2.7600     0.9620 ca         1 EUR      -0.095000
     25 C25          4.2130     1.9170     1.6540 ca         1 EUR       0.030000
     26 C28          4.2190     0.5350     1.3780 ca         1 EUR      -0.092000
     27 C26          5.1080     2.4610     2.6390 cg         1 EUR       0.317000
     28 N27          5.8430     2.9000     3.4340 n1         1 EUR      -0.430000
     29 C29          1.0490    -2.0400     0.3490 ca         1 EUR       0.191000
     30 F30          0.9170    -1.3610     1.5130 f          1 EUR      -0.146000
     31 H01         -2.8510     3.8570    -3.3050 ho         1 EUR       0.461000
     32 H021        -3.7650     4.2350    -1.1930 h1         1 EUR       0.058200
     33 H022        -4.9060     3.4400    -2.2840 h1         1 EUR       0.058200
     34 H08         -2.5050     0.9480    -1.2980 hn         1 EUR       0.372000
     35 H11         -1.7830    -0.9000    -0.5610 hn         1 EUR       0.312500
     36 H121        -1.2600    -2.7590     1.6100 h1         1 EUR       0.073700
     37 H122        -2.0140    -3.5620     0.2190 h1         1 EUR       0.073700
     38 H14         -0.7610    -3.9830    -1.8140 ha         1 EUR       0.128000
     39 H15          1.4330    -4.0280    -2.9800 ha         1 EUR       0.141000
     40 H21          1.7900     0.4560    -1.0360 ha         1 EUR       0.138000
     41 H28          4.9000    -0.1280     1.9070 ha         1 EUR       0.151000
     42 H24          3.3050     3.8280     1.1660 ha         1 EUR       0.145000
@<TRIPOS>BOND
     1     1     2 1   
     2     1    31 1   
     3     2     3 1   
     4     2    32 1   
     5     2    33 1   
     6     3     4 2   
     7     3     8 1   
     8     4     5 1   
     9     5     6 1   
    10     5     7 2   
    11     7     8 1   
    12     7     9 1   
    13     8    34 1   
    14     9    10 2   
    15     9    11 1   
    16    11    12 1   
    17    11    35 1   
    18    12    13 1   
    19    12    36 1   
    20    12    37 1   
    21    13    14 ar  
    22    13    29 ar  
    23    14    15 ar  
    24    14    38 1   
    25    15    16 ar  
    26    15    39 1   
    27    16    17 1   
    28    16    18 ar  
    29    18    19 1   
    30    18    29 ar  
    31    19    20 1   
    32    20    21 ar  
    33    20    26 ar  
    34    21    22 ar  
    35    21    40 1   
    36    22    23 1   
    37    22    24 ar  
    38    24    25 ar  
    39    24    42 1   
    40    25    26 ar  
    41    25    27 1   
    42    26    41 1   
    43    27    28 3   
    44    29    30 1   
@<TRIPOS>SUBSTRUCTURE
     1 EUR         1 TEMP              0 ****  ****    0 ROOT
