@<TRIPOS>MOLECULE
EUR
   42    44     1     0     0
SMALL
bcc


@<TRIPOS>ATOM
      1 O01         -1.3900     3.2650    -0.9250 oh         1 EUR      -0.610800
      2 C02         -2.7740     3.4650    -0.8010 c3         1 EUR       0.107100
      3 C03         -3.3460     2.2600    -0.1370 cc         1 EUR       0.419800
      4 N04         -4.4770     2.1930     0.5300 nd         1 EUR      -0.669000
      5 C05         -4.5600     0.9180     0.9530 cd         1 EUR       0.465300
      6 CL1         -5.8970     0.3750     1.8610 cl         1 EUR      -0.106000
      7 C07         -3.4850     0.1750     0.5420 cc         1 EUR      -0.294200
      8 N08         -2.7270     1.0730    -0.1690 na         1 EUR      -0.261900
      9 C09         -3.1150    -1.2240     0.7820 c          1 EUR       0.726700
     10 O10         -3.4450    -1.8060     1.8010 o          1 EUR      -0.555100
     11 N11         -2.3610    -1.7780    -0.1960 ns         1 EUR      -0.590900
     12 C12         -1.7260    -3.0700    -0.0750 c3         1 EUR       0.152300
     13 C13         -0.2660    -2.9770    -0.4250 ca         1 EUR      -0.145300
     14 C14          0.2940    -3.6980    -1.4710 ca         1 EUR      -0.083000
     15 C15          1.6360    -3.5840    -1.8000 ca         1 EUR      -0.133000
     16 C16          2.4430    -2.7190    -1.0810 ca         1 EUR       0.042400
     17 CL2          4.1030    -2.5210    -1.4740 cl         1 EUR      -0.060400
     18 C18          1.9150    -1.9870    -0.0240 ca         1 EUR       0.041100
     19 O19          2.6930    -1.1600     0.7220 os         1 EUR      -0.216200
     20 C20          2.6890     0.1710     0.4400 ca         1 EUR       0.142100
     21 C21          2.1430     0.6990    -0.7220 ca         1 EUR      -0.179000
     22 C22          2.2070     2.0700    -0.9260 ca         1 EUR       0.057400
     23 CL3          1.5430     2.7270    -2.3730 cl         1 EUR      -0.104400
     24 C24          2.7990     2.9200    -0.0140 ca         1 EUR      -0.113000
     25 C25          3.3410     2.3610     1.1410 ca         1 EUR       0.030000
     26 C28          3.2910     0.9930     1.3800 ca         1 EUR      -0.110000
     27 C26          3.9550     3.2150     2.1090 cg         1 EUR       0.227800
     28 N27          4.4500     3.9010     2.8890 n1         1 EUR      -0.340800
     29 C29          0.5730    -2.1340     0.2860 ca         1 EUR       0.155900
     30 F30          0.0890    -1.4190     1.3020 f          1 EUR      -0.110900
     31 H01         -1.0720     3.7190    -1.7080 ho         1 EUR       0.422000
     32 H021        -3.0220     4.3480    -0.2030 h1         1 EUR       0.058200
     33 H022        -3.2600     3.5970    -1.7750 h1         1 EUR       0.058200
     34 H08         -1.8010     0.9290    -0.5420 hn         1 EUR       0.321700
     35 H11         -2.3730    -1.3630    -1.1130 hn         1 EUR       0.312500
     36 H121        -1.8610    -3.4200     0.9470 h1         1 EUR       0.073700
     37 H122        -2.2130    -3.8010    -0.7230 h1         1 EUR       0.073700
     38 H14         -0.3320    -4.3650    -2.0480 ha         1 EUR       0.146000
     39 H15          2.0480    -4.1530    -2.6200 ha         1 EUR       0.159000
     40 H21          1.6850     0.0690    -1.4720 ha         1 EUR       0.156000
     41 H28          3.7120     0.5720     2.2830 ha         1 EUR       0.169000
     42 H24          2.8450     3.9840    -0.1890 ha         1 EUR       0.163000
@<TRIPOS>BOND
     1     1     2 1   
     2     1    31 1   
     3     2     3 1   
     4     2    32 1   
     5     2    33 1   
     6     3     4 2   
     7     3     8 1   
     8     4     5 1   
     9     5     6 1   
    10     5     7 2   
    11     7     8 1   
    12     7     9 1   
    13     8    34 1   
    14     9    10 2   
    15     9    11 1   
    16    11    12 1   
    17    11    35 1   
    18    12    13 1   
    19    12    36 1   
    20    12    37 1   
    21    13    14 ar  
    22    13    29 ar  
    23    14    15 ar  
    24    14    38 1   
    25    15    16 ar  
    26    15    39 1   
    27    16    17 1   
    28    16    18 ar  
    29    18    19 1   
    30    18    29 ar  
    31    19    20 1   
    32    20    21 ar  
    33    20    26 ar  
    34    21    22 ar  
    35    21    40 1   
    36    22    23 1   
    37    22    24 ar  
    38    24    25 ar  
    39    24    42 1   
    40    25    26 ar  
    41    25    27 1   
    42    26    41 1   
    43    27    28 3   
    44    29    30 1   
@<TRIPOS>SUBSTRUCTURE
     1 EUR         1 TEMP              0 ****  ****    0 ROOT
