@<TRIPOS>MOLECULE
EUS
   74    76     1     0     0
SMALL
abcg2


@<TRIPOS>ATOM
      1 C6          -2.3260     4.8690    -0.9950 c3         1 EUS      -0.383100
      2 O1          -4.0930     2.9910    -1.3950 o          1 EUS      -0.528000
      3 C11          4.0720    -0.5560     0.4030 c6         1 EUS       0.407300
      4 C12         -0.6740     1.7350    -0.1950 c6         1 EUS       0.212500
      5 C13         -2.4270    -1.0010    -1.0390 c6         1 EUS       0.347300
      6 C21          4.7350    -1.6150     1.2730 c6         1 EUS       0.133500
      7 C22          0.6100     2.5100    -0.4490 c6         1 EUS      -0.107400
      8 C23         -3.8710    -1.1310    -0.5350 c6         1 EUS       0.170300
      9 C31          5.8830    -2.2060     0.4380 c6         1 EUS      -0.066200
     10 C32          1.7560     2.0260     0.4320 c6         1 EUS       0.168500
     11 C33         -3.9850    -2.1910     0.5610 c6         1 EUS       0.209500
     12 C41          6.6570    -1.1220    -0.2540 c2         1 EUS      -0.339200
     13 C42          1.9680     0.5420     0.1680 c6         1 EUS       0.140300
     14 C43         -3.3540    -3.5140     0.0920 c6         1 EUS       0.123000
     15 C51          6.2020     0.1270    -0.3430 c2         1 EUS       0.107900
     16 C52          0.6960    -0.2670     0.4330 c6         1 EUS       0.152300
     17 C53         -1.9570    -3.2380    -0.4570 c6         1 EUS       0.138600
     18 C61          6.9190     1.3000    -0.9320 c3         1 EUS       0.199000
     19 C62         -0.4740     0.2310    -0.4080 c6         1 EUS       0.184300
     20 C83         -3.2420    -4.5060     1.2450 c3         1 EUS      -0.125100
     21 N12         -1.7720     2.1740    -1.0420 n7         1 EUS      -0.915300
     22 N21          5.1220    -1.0540     2.5550 n8         1 EUS      -0.973200
     23 N32          2.9500     2.7900     0.1110 n8         1 EUS      -1.007200
     24 N33         -5.3690    -2.3390     0.9780 n7         1 EUS      -0.870400
     25 N61          6.1150     1.9250    -1.9780 n8         1 EUS      -0.992200
     26 O11          2.9780     0.0100     1.0160 os         1 EUS      -0.433000
     27 O2          -3.0290     3.1620     0.8750 o          1 EUS      -0.528000
     28 O23         -4.3640     0.0770    -0.0220 oh         1 EUS      -0.692000
     29 O43         -4.2000    -4.0200    -0.9280 oh         1 EUS      -0.708000
     30 O51          4.9900     0.4940     0.1460 os         1 EUS      -0.394100
     31 O52          0.9120    -1.6230     0.1320 oh         1 EUS      -0.711000
     32 O53         -1.9490    -2.2450    -1.4630 os         1 EUS      -0.454000
     33 O62         -1.6440    -0.4500    -0.0270 os         1 EUS      -0.458000
     34 S           -2.9140     3.2450    -0.5720 s6         1 EUS       1.217100
     35 H1          -2.1440     4.9200    -2.0660 h1         1 EUS       0.100367
     36 H2          -3.0940     5.5880    -0.7160 h1         1 EUS       0.100367
     37 H3          -1.4100     5.0780    -0.4470 h1         1 EUS       0.100367
     38 H4           3.7970    -1.0150    -0.5600 h2         1 EUS       0.048700
     39 H5          -0.9860     1.8800     0.8420 h1         1 EUS       0.102700
     40 H6          -2.4060    -0.3660    -1.9330 h2         1 EUS       0.062700
     41 H7           3.9980    -2.4010     1.4590 h1         1 EUS       0.069700
     42 H8           0.9040     2.4190    -1.5010 hc         1 EUS       0.052200
     43 H9           0.4370     3.5730    -0.2610 hc         1 EUS       0.052200
     44 H10         -4.4680    -1.4660    -1.3950 h1         1 EUS       0.067700
     45 H11          6.5400    -2.7850     1.0940 hc         1 EUS       0.054700
     46 H12          5.4870    -2.9180    -0.2930 hc         1 EUS       0.054700
     47 H13          1.4500     2.1430     1.4850 h1         1 EUS       0.037700
     48 H14         -3.3850    -1.8510     1.4170 h1         1 EUS       0.064700
     49 H15          7.6250    -1.3520    -0.6810 ha         1 EUS       0.191000
     50 H16          2.2540     0.4220    -0.8870 h1         1 EUS       0.071700
     51 H17          0.4230    -0.1410     1.4920 h1         1 EUS       0.058700
     52 H18         -1.2810    -2.9740     0.3610 h1         1 EUS       0.055200
     53 H19         -1.5590    -4.1460    -0.9190 h1         1 EUS       0.055200
     54 H20          7.1800     1.9890    -0.1150 h1         1 EUS       0.042200
     55 H21          7.8610     0.9550    -1.3600 h1         1 EUS       0.042200
     56 H22         -0.2380     0.0520    -1.4680 h1         1 EUS       0.057700
     57 H23         -4.2230    -4.7590     1.6490 hc         1 EUS       0.044033
     58 H24         -2.7720    -5.4350     0.9130 hc         1 EUS       0.044033
     59 H25         -2.6370    -4.1040     2.0580 hc         1 EUS       0.044033
     60 H26         -5.4340    -0.9400     2.5270 h1         1 EUS       0.027700
     61 H27         -6.6820    -2.1760     2.5860 h1         1 EUS       0.027700
     62 H28         -5.0340    -2.5650     3.0900 h1         1 EUS       0.027700
     63 H29         -1.6120     2.1540    -2.0430 hn         1 EUS       0.486000
     64 H30          5.5090    -1.7940     3.1280 hn         1 EUS       0.397500
     65 H31          5.8730    -0.3860     2.4340 hn         1 EUS       0.397500
     66 H33          2.7930     3.7610     0.3520 hn         1 EUS       0.409000
     67 H34          3.7250     2.4820     0.6830 hn         1 EUS       0.409000
     68 H36         -5.7110    -3.2660     0.7720 hn         1 EUS       0.426000
     69 H38          5.2530     2.2720    -1.5720 hn         1 EUS       0.404500
     70 H39          6.6050     2.7420    -2.3180 hn         1 EUS       0.404500
     71 H41         -4.3700     0.7370    -0.7230 ho         1 EUS       0.508000
     72 H42         -3.8980    -4.9020    -1.1680 ho         1 EUS       0.500000
     73 H43          1.3310    -2.0400     0.8900 ho         1 EUS       0.512000
     74 C93         -5.6300    -2.0000     2.3600 c3         1 EUS       0.160100
@<TRIPOS>BOND
     1     1    34 1   
     2     1    35 1   
     3     1    36 1   
     4     1    37 1   
     5     2    34 2   
     6     3     6 1   
     7     3    26 1   
     8     3    30 1   
     9     3    38 1   
    10     4     7 1   
    11     4    19 1   
    12     4    21 1   
    13     4    39 1   
    14     5     8 1   
    15     5    32 1   
    16     5    33 1   
    17     5    40 1   
    18     6     9 1   
    19     6    22 1   
    20     6    41 1   
    21     7    10 1   
    22     7    42 1   
    23     7    43 1   
    24     8    11 1   
    25     8    28 1   
    26     8    44 1   
    27     9    12 1   
    28     9    45 1   
    29     9    46 1   
    30    10    13 1   
    31    10    23 1   
    32    10    47 1   
    33    11    14 1   
    34    11    24 1   
    35    11    48 1   
    36    12    15 2   
    37    12    49 1   
    38    13    16 1   
    39    13    26 1   
    40    13    50 1   
    41    14    17 1   
    42    14    20 1   
    43    14    29 1   
    44    15    18 1   
    45    15    30 1   
    46    16    19 1   
    47    16    31 1   
    48    16    51 1   
    49    17    32 1   
    50    17    52 1   
    51    17    53 1   
    52    18    25 1   
    53    18    54 1   
    54    18    55 1   
    55    19    33 1   
    56    19    56 1   
    57    20    57 1   
    58    20    58 1   
    59    20    59 1   
    60    21    34 1   
    61    21    63 1   
    62    22    64 1   
    63    22    65 1   
    64    23    66 1   
    65    23    67 1   
    66    24    68 1   
    67    24    74 1   
    68    25    69 1   
    69    25    70 1   
    70    27    34 2   
    71    28    71 1   
    72    29    72 1   
    73    31    73 1   
    74    60    74 1   
    75    61    74 1   
    76    62    74 1   
@<TRIPOS>SUBSTRUCTURE
     1 EUS         1 TEMP              0 ****  ****    0 ROOT
