@<TRIPOS>MOLECULE
EUS
   74    76     1     0     0
SMALL
No Charge or Current Charge


@<TRIPOS>ATOM
      1 C6          -1.8060     3.9210    -2.5020 c3         1 EUS      -0.383100
      2 O1          -4.0000     3.1410    -1.2080 o          1 EUS      -0.528000
      3 C11          4.4850    -0.2710    -0.0510 c6         1 EUS       0.407300
      4 C12         -0.7490     1.2350    -0.3340 c6         1 EUS       0.212500
      5 C13         -2.7140    -1.3570    -0.7370 c6         1 EUS       0.347300
      6 C21          5.3680    -1.5690     0.0790 c6         1 EUS       0.133500
      7 C22          0.5180     1.9580    -0.8810 c6         1 EUS      -0.107400
      8 C23         -4.1120    -1.0120    -0.1270 c6         1 EUS       0.170300
      9 C31          6.7340    -1.2780    -0.5900 c6         1 EUS      -0.066200
     10 C32          1.8180     1.5540    -0.1370 c6         1 EUS       0.168500
     11 C33         -4.4920    -2.0310     1.0160 c6         1 EUS       0.209500
     12 C41          7.2770     0.0730    -0.1380 c2         1 EUS      -0.339200
     13 C42          2.0260    -0.0010    -0.1590 c6         1 EUS       0.140300
     14 C43         -4.2760    -3.5250     0.5360 c6         1 EUS       0.123000
     15 C51          6.5020     1.0260     0.4120 c2         1 EUS       0.107900
     16 C52          0.7750    -0.6950     0.4490 c6         1 EUS       0.152300
     17 C53         -2.8260    -3.6600    -0.0150 c6         1 EUS       0.138600
     18 C61          7.0150     2.3440     0.9890 c3         1 EUS       0.199000
     19 C62         -0.5170    -0.3250    -0.3510 c6         1 EUS       0.184300
     20 C83         -4.4890    -4.5550     1.6820 c3         1 EUS      -0.125100
     21 N12         -2.0010     1.6320    -1.0650 n7         1 EUS      -0.915300
     22 N21          5.5880    -2.0280     1.4890 n8         1 EUS      -0.973200
     23 N32          2.9460     2.3020    -0.7360 n8         1 EUS      -1.007200
     24 N33         -5.9000    -1.8140     1.4830 n7         1 EUS      -0.870400
     25 N61          7.3940     3.3170    -0.0660 n8         1 EUS      -0.992200
     26 O11          3.1970    -0.4530     0.5810 os         1 EUS      -0.433000
     27 O2          -1.9690     3.8490     0.1410 o          1 EUS      -0.528000
     28 O23         -4.1300     0.3620     0.3450 oh         1 EUS      -0.692000
     29 O43         -5.2230    -3.8520    -0.5030 oh         1 EUS      -0.708000
     30 O51          5.1400     0.8740     0.5530 os         1 EUS      -0.394100
     31 O52          0.9970    -2.1210     0.5190 oh         1 EUS      -0.711000
     32 O53         -2.6240    -2.7460    -1.1130 os         1 EUS      -0.454000
     33 O62         -1.6550    -1.0440     0.1910 os         1 EUS      -0.458000
     34 S           -2.5510     3.2180    -1.0430 s6         1 EUS       1.217100
     35 H1          -2.1700     3.3650    -3.3730 h1         1 EUS       0.100367
     36 H2          -2.1350     4.9650    -2.5530 h1         1 EUS       0.100367
     37 H3          -0.7180     3.8700    -2.4210 h1         1 EUS       0.100367
     38 H4           4.3490    -0.0760    -1.1260 h2         1 EUS       0.048700
     39 H5          -0.8660     1.5190     0.7250 h1         1 EUS       0.102700
     40 H6          -2.5950    -0.7540    -1.6490 h2         1 EUS       0.062700
     41 H7           4.8820    -2.3940    -0.4650 h1         1 EUS       0.069700
     42 H8           0.6260     1.7530    -1.9560 hc         1 EUS       0.052200
     43 H9           0.4060     3.0430    -0.7720 hc         1 EUS       0.052200
     44 H10         -4.8480    -1.1260    -0.9360 h1         1 EUS       0.067700
     45 H11          7.4530    -2.0770    -0.3610 hc         1 EUS       0.054700
     46 H12          6.6190    -1.2730    -1.6830 hc         1 EUS       0.054700
     47 H13          1.7410     1.8760     0.9130 h1         1 EUS       0.037700
     48 H14         -3.8030    -1.8390     1.8530 h1         1 EUS       0.064700
     49 H15          8.3540     0.2240    -0.2240 ha         1 EUS       0.191000
     50 H16          2.1240    -0.3310    -1.2040 h1         1 EUS       0.071700
     51 H17          0.6480    -0.3060     1.4710 h1         1 EUS       0.058700
     52 H18         -2.0900    -3.4610     0.7780 h1         1 EUS       0.055200
     53 H19         -2.6540    -4.6850    -0.3740 h1         1 EUS       0.055200
     54 H20          6.2430     2.7980     1.6250 h1         1 EUS       0.042200
     55 H21          7.8940     2.1490     1.6190 h1         1 EUS       0.042200
     56 H22         -0.3650    -0.6500    -1.3910 h1         1 EUS       0.057700
     57 H23         -5.5340    -4.5900     2.0120 hc         1 EUS       0.044033
     58 H24         -4.2230    -5.5690     1.3590 hc         1 EUS       0.044033
     59 H25         -3.8680    -4.3140     2.5540 hc         1 EUS       0.044033
     60 H26         -5.5750    -1.0230     3.4320 h1         1 EUS       0.027700
     61 H27         -7.2160    -1.6390     3.1420 h1         1 EUS       0.027700
     62 H28         -5.8740    -2.7750     3.3920 h1         1 EUS       0.027700
     63 H29         -1.8330     1.5220    -2.0680 hn         1 EUS       0.486000
     64 H30          6.4690    -2.5520     1.5280 hn         1 EUS       0.397500
     65 H31          5.7860    -1.1930     2.0520 hn         1 EUS       0.397500
     66 H33          2.8360     3.2990    -0.5200 hn         1 EUS       0.409000
     67 H34          3.8010     2.0380    -0.2260 hn         1 EUS       0.409000
     68 H36         -6.4690    -2.5450     1.0360 hn         1 EUS       0.426000
     69 H38          6.5580     3.5390    -0.6190 hn         1 EUS       0.404500
     70 H39          7.6370     4.2110     0.3780 hn         1 EUS       0.404500
     71 H41         -3.3650     0.8160    -0.1020 ho         1 EUS       0.508000
     72 H42         -4.7470    -3.7320    -1.3570 ho         1 EUS       0.500000
     73 H43          1.9200    -2.2200     0.8530 ho         1 EUS       0.512000
     74 C93         -6.1520    -1.8160     2.9370 c3         1 EUS       0.160100
@<TRIPOS>BOND
     1     1    34 1   
     2     1    35 1   
     3     1    36 1   
     4     1    37 1   
     5     2    34 2   
     6     3     6 1   
     7     3    26 1   
     8     3    30 1   
     9     3    38 1   
    10     4     7 1   
    11     4    19 1   
    12     4    21 1   
    13     4    39 1   
    14     5     8 1   
    15     5    32 1   
    16     5    33 1   
    17     5    40 1   
    18     6     9 1   
    19     6    22 1   
    20     6    41 1   
    21     7    10 1   
    22     7    42 1   
    23     7    43 1   
    24     8    11 1   
    25     8    28 1   
    26     8    44 1   
    27     9    12 1   
    28     9    45 1   
    29     9    46 1   
    30    10    13 1   
    31    10    23 1   
    32    10    47 1   
    33    11    14 1   
    34    11    24 1   
    35    11    48 1   
    36    12    15 2   
    37    12    49 1   
    38    13    16 1   
    39    13    26 1   
    40    13    50 1   
    41    14    17 1   
    42    14    20 1   
    43    14    29 1   
    44    15    18 1   
    45    15    30 1   
    46    16    19 1   
    47    16    31 1   
    48    16    51 1   
    49    17    32 1   
    50    17    52 1   
    51    17    53 1   
    52    18    25 1   
    53    18    54 1   
    54    18    55 1   
    55    19    33 1   
    56    19    56 1   
    57    20    57 1   
    58    20    58 1   
    59    20    59 1   
    60    21    34 1   
    61    21    63 1   
    62    22    64 1   
    63    22    65 1   
    64    23    66 1   
    65    23    67 1   
    66    24    68 1   
    67    24    74 1   
    68    25    69 1   
    69    25    70 1   
    70    27    34 2   
    71    28    71 1   
    72    29    72 1   
    73    31    73 1   
    74    60    74 1   
    75    61    74 1   
    76    62    74 1   
@<TRIPOS>SUBSTRUCTURE
     1 EUS         1 TEMP              0 ****  ****    0 ROOT
