@<TRIPOS>MOLECULE
EUT
   46    49     1     0     0
SMALL
No Charge or Current Charge


@<TRIPOS>ATOM
      1 C1          -1.1920     1.5800    -1.0720 ca         1 EUT      -0.154500
      2 C2          -1.5860     1.2100     1.2930 ca         1 EUT      -0.154500
      3 C3          -1.6750     3.4650     0.3860 ca         1 EUT      -0.192000
      4 C4          -1.3070     0.7010     0.0160 ca         1 EUT       0.334000
      5 C5          -1.3800     2.9560    -0.8850 ca         1 EUT       0.205000
      6 C6          -1.7740     2.5860     1.4730 ca         1 EUT       0.205000
      7 C7           2.5850    -2.3200    -0.0710 cc         1 EUT      -0.516200
      8 C8           2.4320    -0.9710    -0.0620 cd         1 EUT       0.492600
      9 C9           1.4890    -3.2430    -0.0620 c          1 EUT       0.596200
     10 C10          0.1620    -1.2680    -0.0970 cc         1 EUT       0.775800
     11 C11         -2.2460    -2.7980     0.2620 c6         1 EUT      -0.114400
     12 C12         -0.9380    -3.5480     0.0050 c6         1 EUT       0.087000
     13 C13          3.3320     1.3180     0.5310 c6         1 EUT       0.183800
     14 C14          4.9080    -0.5030    -0.2330 c6         1 EUT       0.183800
     15 C15          4.3300     2.3480    -0.0700 c6         1 EUT       0.138600
     16 C16          5.8310     0.6190    -0.7910 c6         1 EUT       0.138600
     17 C17         -2.2760    -1.5180    -0.5880 c6         1 EUT       0.192500
     18 C18         -3.7100    -0.8390    -0.5410 c3         1 EUT       0.290000
     19 N19          1.1770    -0.4250    -0.0860 nd         1 EUT      -0.765300
     20 N20         -1.0940    -0.6790    -0.1590 nh         1 EUT      -0.809400
     21 N21          3.4840    -0.0560    -0.0680 nh         1 EUT      -0.662400
     22 N22          0.2440    -2.6530    -0.0380 n          1 EUT      -0.345300
     23 O24          5.6820     1.8380    -0.0310 os         1 EUT      -0.443000
     24 F25         -1.2730     3.7970    -1.9360 f          1 EUT      -0.167000
     25 F26         -2.0500     3.0700     2.7030 f          1 EUT      -0.167000
     26 F27         -4.0490    -0.4280     0.7030 f          1 EUT      -0.106667
     27 F28         -3.8050     0.2310    -1.3640 f          1 EUT      -0.106667
     28 F29         -4.6720    -1.7040    -0.9390 f          1 EUT      -0.106667
     29 H1          -0.9550     1.1930    -2.0570 ha         1 EUT       0.148500
     30 H2          -1.6570     0.5360     2.1390 ha         1 EUT       0.148500
     31 H3          -1.8200     4.5320     0.5290 ha         1 EUT       0.154000
     32 H7           3.5560    -2.7890    -0.0600 ha         1 EUT       0.215000
     33 H111        -3.0930    -3.4580     0.0310 hc         1 EUT       0.083700
     34 H112        -2.3250    -2.5400     1.3270 hc         1 EUT       0.083700
     35 H121        -0.8020    -4.3140     0.7830 h1         1 EUT       0.079700
     36 H122        -1.0080    -4.0720    -0.9600 h1         1 EUT       0.079700
     37 H17         -2.1290    -1.8090    -1.6400 h1         1 EUT       0.082700
     38 H131         3.4940     1.2640     1.6170 h1         1 EUT       0.064200
     39 H132         2.3200     1.7190     0.3830 h1         1 EUT       0.064200
     40 H151         4.0560     2.5670    -1.1120 h1         1 EUT       0.055200
     41 H152         4.2820     3.2870     0.4980 h1         1 EUT       0.055200
     42 H141         4.9700    -1.3530    -0.9280 h1         1 EUT       0.064200
     43 H142         5.3060    -0.8440     0.7330 h1         1 EUT       0.064200
     44 H161         6.8800     0.2940    -0.7490 h1         1 EUT       0.055200
     45 H162         5.5800     0.8180    -1.8430 h1         1 EUT       0.055200
     46 O23          1.6620    -4.4530    -0.0650 o          1 EUT      -0.567000
@<TRIPOS>BOND
     1     1     4 ar  
     2     1     5 ar  
     3     1    29 1   
     4     2     4 ar  
     5     2     6 ar  
     6     2    30 1   
     7     3     5 ar  
     8     3     6 ar  
     9     3    31 1   
    10     4    20 1   
    11     5    24 1   
    12     6    25 1   
    13     7     8 2   
    14     7     9 1   
    15     7    32 1   
    16     8    19 1   
    17     8    21 1   
    18     9    22 1   
    19     9    46 2   
    20    10    19 2   
    21    10    20 1   
    22    10    22 1   
    23    11    12 1   
    24    11    17 1   
    25    11    33 1   
    26    11    34 1   
    27    12    22 1   
    28    12    35 1   
    29    12    36 1   
    30    13    15 1   
    31    13    21 1   
    32    13    38 1   
    33    13    39 1   
    34    14    16 1   
    35    14    21 1   
    36    14    42 1   
    37    14    43 1   
    38    15    23 1   
    39    15    40 1   
    40    15    41 1   
    41    16    23 1   
    42    16    44 1   
    43    16    45 1   
    44    17    18 1   
    45    17    20 1   
    46    17    37 1   
    47    18    26 1   
    48    18    27 1   
    49    18    28 1   
@<TRIPOS>SUBSTRUCTURE
     1 EUT         1 TEMP              0 ****  ****    0 ROOT
