@<TRIPOS>MOLECULE
EUT
   46    49     1     0     0
SMALL
abcg2


@<TRIPOS>ATOM
      1 C1          -1.4860     1.3180    -1.4330 ca         1 EUT      -0.154500
      2 C2          -1.0120     1.4700     0.9330 ca         1 EUT      -0.154500
      3 C3          -1.3850     3.4900    -0.3600 ca         1 EUT      -0.192000
      4 C4          -1.2070     0.7160    -0.2160 ca         1 EUT       0.334000
      5 C5          -1.5740     2.6960    -1.4730 ca         1 EUT       0.205000
      6 C6          -1.1010     2.8420     0.8280 ca         1 EUT       0.205000
      7 C7           2.5990    -2.3180    -0.2240 cc         1 EUT      -0.516200
      8 C8           2.3650    -0.9750     0.0320 cd         1 EUT       0.492600
      9 C9           1.5220    -3.1770    -0.5260 c          1 EUT       0.596200
     10 C10          0.1070    -1.2680    -0.1860 cc         1 EUT       0.775800
     11 C11         -2.1140    -2.9430    -0.0670 c6         1 EUT      -0.114400
     12 C12         -0.9190    -3.3670    -0.8810 c6         1 EUT       0.087000
     13 C13          3.0410     1.2890     0.6960 c6         1 EUT       0.183800
     14 C14          4.7320    -0.4300     0.4430 c6         1 EUT       0.183800
     15 C15          4.0060     2.2610     0.0480 c6         1 EUT       0.138600
     16 C16          5.6310     0.6240    -0.1810 c6         1 EUT       0.138600
     17 C17         -2.3830    -1.4620    -0.2850 c6         1 EUT       0.192500
     18 C18         -3.4220    -0.9690     0.7230 c3         1 EUT       0.290000
     19 N19          1.1070    -0.4810     0.0600 nd         1 EUT      -0.765300
     20 N20         -1.1450    -0.7070    -0.1540 nh         1 EUT      -0.809400
     21 N21          3.3410    -0.0670     0.2620 nh         1 EUT      -0.662400
     22 N22          0.2390    -2.5770    -0.4900 n          1 EUT      -0.345300
     23 O24          5.3480     1.9140     0.3070 os         1 EUT      -0.443000
     24 F25         -1.8460     3.2900    -2.6400 f          1 EUT      -0.167000
     25 F26         -0.9080     3.5840     1.9250 f          1 EUT      -0.167000
     26 F27         -2.9390    -0.9400     1.9680 f          1 EUT      -0.106667
     27 F28         -3.8800     0.2550     0.4450 f          1 EUT      -0.106667
     28 F29         -4.4860    -1.7810     0.7230 f          1 EUT      -0.106667
     29 H1          -1.6280     0.7300    -2.3300 ha         1 EUT       0.148500
     30 H2          -0.7810     1.0020     1.8790 ha         1 EUT       0.148500
     31 H3          -1.4550     4.5680    -0.4140 ha         1 EUT       0.154000
     32 H7           3.5870    -2.7510    -0.2430 ha         1 EUT       0.215000
     33 H111        -2.9790    -3.5230    -0.3800 hc         1 EUT       0.083700
     34 H112        -1.9270    -3.1580     0.9870 hc         1 EUT       0.083700
     35 H121        -0.6940    -4.4130    -0.7000 h1         1 EUT       0.079700
     36 H122        -1.1040    -3.2450    -1.9510 h1         1 EUT       0.079700
     37 H17         -2.8110    -1.3180    -1.2840 h1         1 EUT       0.082700
     38 H131         3.1180     1.3570     1.7880 h1         1 EUT       0.064200
     39 H132         2.0210     1.5430     0.4200 h1         1 EUT       0.064200
     40 H151         3.8190     2.2950    -1.0350 h1         1 EUT       0.055200
     41 H152         3.8420     3.2630     0.4490 h1         1 EUT       0.055200
     42 H141         4.9550    -1.3820    -0.0340 h1         1 EUT       0.064200
     43 H142         4.9560    -0.5370     1.5110 h1         1 EUT       0.064200
     44 H161         6.6720     0.4010     0.0570 h1         1 EUT       0.055200
     45 H162         5.5190     0.5910    -1.2740 h1         1 EUT       0.055200
     46 O23          1.6040    -4.3670    -0.8180 o          1 EUT      -0.567000
@<TRIPOS>BOND
     1     1     4 ar  
     2     1     5 ar  
     3     1    29 1   
     4     2     4 ar  
     5     2     6 ar  
     6     2    30 1   
     7     3     5 ar  
     8     3     6 ar  
     9     3    31 1   
    10     4    20 1   
    11     5    24 1   
    12     6    25 1   
    13     7     8 2   
    14     7     9 1   
    15     7    32 1   
    16     8    19 1   
    17     8    21 1   
    18     9    22 1   
    19     9    46 2   
    20    10    19 2   
    21    10    20 1   
    22    10    22 1   
    23    11    12 1   
    24    11    17 1   
    25    11    33 1   
    26    11    34 1   
    27    12    22 1   
    28    12    35 1   
    29    12    36 1   
    30    13    15 1   
    31    13    21 1   
    32    13    38 1   
    33    13    39 1   
    34    14    16 1   
    35    14    21 1   
    36    14    42 1   
    37    14    43 1   
    38    15    23 1   
    39    15    40 1   
    40    15    41 1   
    41    16    23 1   
    42    16    44 1   
    43    16    45 1   
    44    17    18 1   
    45    17    20 1   
    46    17    37 1   
    47    18    26 1   
    48    18    27 1   
    49    18    28 1   
@<TRIPOS>SUBSTRUCTURE
     1 EUT         1 TEMP              0 ****  ****    0 ROOT
