@<TRIPOS>MOLECULE
EUU
   58    60     1     0     0
SMALL
bcc


@<TRIPOS>ATOM
      1 C13          7.1040    -2.0130    26.8200 c3         1 EUU      -0.215300
      2 C15          8.9110    -1.3490    31.2710 ca         1 EUU      -0.015000
      3 C17          9.9710    -1.7710    33.4100 ca         1 EUU      -0.030200
      4 C20         11.4630    -1.3410    31.7420 cc         1 EUU      -0.175200
      5 C21         12.1240    -1.5800    32.9100 cd         1 EUU      -0.114100
      6 C24         11.3120    -3.7310    35.5190 c3         1 EUU      -0.138400
      7 C28         12.1460    -6.6380    35.9640 c3         1 EUU       0.157100
      8 C01          5.5420    -1.1720    29.0110 ca         1 EUU       0.567900
      9 C03          4.0810    -1.4540    30.6810 ca         1 EUU       0.710200
     10 C04          5.1750    -1.5510    31.5640 ca         1 EUU      -0.409600
     11 C05          6.4520    -1.4370    31.0470 cp         1 EUU       0.552800
     12 C09          2.4210    -3.2740    32.8040 c3         1 EUU      -0.107400
     13 C14          7.6700    -1.5370    31.8690 cp         1 EUU      -0.204500
     14 C16         10.0700    -1.4620    32.0350 ca         1 EUU      -0.115800
     15 C18          8.7320    -1.9480    34.0280 ca         1 EUU      -0.156000
     16 C19          7.6020    -1.8290    33.2500 ca         1 EUU      -0.089000
     17 C25         12.1030    -4.6460    34.5810 c3         1 EUU       0.171800
     18 C27         10.5020    -6.4310    34.2320 c3         1 EUU       0.157100
     19 C29          1.9620    -3.5060    34.2350 c3         1 EUU      -0.089100
     20 N02          4.2900    -1.2720    29.3630 nb         1 EUU      -0.725000
     21 N06          6.6310    -1.2290    29.7260 nb         1 EUU      -0.724000
     22 N07          2.8080    -1.5240    31.0790 nu         1 EUU      -0.869900
     23 N22         11.2320    -1.8330    33.9210 na         1 EUU      -0.058400
     24 N26         11.8270    -6.0660    34.6760 n3         1 EUU      -0.723600
     25 S10          5.8420    -0.8390    27.2550 sy         1 EUU       1.018900
     26 H1           7.9920    -1.8380    27.4200 h1         1 EUU       0.106367
     27 H2           6.7290    -3.0220    26.9760 h1         1 EUU       0.106367
     28 H3           7.3260    -1.8570    25.7640 h1         1 EUU       0.106367
     29 H4           8.9750    -1.1200    30.2160 ha         1 EUU       0.156000
     30 H5          11.9140    -1.1060    30.7910 ha         1 EUU       0.160000
     31 H6          13.1840    -1.5880    33.1130 h4         1 EUU       0.163000
     32 H7          10.2400    -3.9280    35.4320 hc         1 EUU       0.053200
     33 H8          11.5760    -3.9310    36.5600 hc         1 EUU       0.053200
     34 H9          13.1660    -6.3720    36.2480 h1         1 EUU       0.029867
     35 H10         11.4790    -6.3200    36.7790 h1         1 EUU       0.029867
     36 H11         12.0910    -7.7260    35.9070 h1         1 EUU       0.029867
     37 H12          5.0110    -1.7120    32.6180 ha         1 EUU       0.150000
     38 H13          2.9490    -1.2020    33.1330 h1         1 EUU       0.053700
     39 H14          1.3380    -1.4360    32.5040 h1         1 EUU       0.053700
     40 H15          1.7950    -3.8420    32.1110 hc         1 EUU       0.050200
     41 H16          3.4420    -3.6460    32.6770 hc         1 EUU       0.050200
     42 H17          8.6450    -2.1710    35.0830 ha         1 EUU       0.132000
     43 H18          6.6460    -1.9770    33.7320 ha         1 EUU       0.125000
     44 H19         12.6370    -2.0260    35.4090 h1         1 EUU       0.058200
     45 H20         11.0240    -1.6410    35.9800 h1         1 EUU       0.058200
     46 H21         13.1730    -4.4930    34.7590 h1         1 EUU       0.055200
     47 H22         11.9190    -4.3480    33.5440 h1         1 EUU       0.055200
     48 H23         10.4280    -7.5170    34.1500 h1         1 EUU       0.029867
     49 H24          9.6910    -6.1000    34.8970 h1         1 EUU       0.029867
     50 H25         10.3110    -6.0100    33.2430 h1         1 EUU       0.029867
     51 H26          1.9900    -4.5650    34.4910 hc         1 EUU       0.036367
     52 H27          2.6000    -2.9770    34.9460 hc         1 EUU       0.036367
     53 H28          0.9390    -3.1570    34.3860 hc         1 EUU       0.036367
     54 H29          2.1140    -1.4910    30.3480 hn         1 EUU       0.456800
     55 C23         11.5800    -2.2520    35.2650 c3         1 EUU       0.052300
     56 O11          6.4030     0.5070    27.1740 o          1 EUU      -0.572800
     57 C08          2.3640    -1.7970    32.4270 c3         1 EUU       0.227800
     58 O12          4.6310    -1.1420    26.5030 o          1 EUU      -0.572800
@<TRIPOS>BOND
     1     1    25 1   
     2     1    26 1   
     3     1    27 1   
     4     1    28 1   
     5     2    13 ar  
     6     2    14 ar  
     7     2    29 1   
     8     3    14 ar  
     9     3    15 ar  
    10     3    23 1   
    11     4     5 2   
    12     4    14 1   
    13     4    30 1   
    14     5    23 1   
    15     5    31 1   
    16     6    17 1   
    17     6    32 1   
    18     6    33 1   
    19     6    55 1   
    20     7    24 1   
    21     7    34 1   
    22     7    35 1   
    23     7    36 1   
    24     8    20 ar  
    25     8    21 ar  
    26     8    25 1   
    27     9    10 ar  
    28     9    20 ar  
    29     9    22 1   
    30    10    11 ar  
    31    10    37 1   
    32    11    13 1   
    33    11    21 ar  
    34    12    19 1   
    35    12    40 1   
    36    12    41 1   
    37    12    57 1   
    38    13    16 ar  
    39    15    16 ar  
    40    15    42 1   
    41    16    43 1   
    42    17    24 1   
    43    17    46 1   
    44    17    47 1   
    45    18    24 1   
    46    18    48 1   
    47    18    49 1   
    48    18    50 1   
    49    19    51 1   
    50    19    52 1   
    51    19    53 1   
    52    22    54 1   
    53    22    57 1   
    54    23    55 1   
    55    25    56 2   
    56    25    58 2   
    57    38    57 1   
    58    39    57 1   
    59    44    55 1   
    60    45    55 1   
@<TRIPOS>SUBSTRUCTURE
     1 EUU         1 TEMP              0 ****  ****    0 ROOT
