@<TRIPOS>MOLECULE
EUU
   58    60     1     0     0
SMALL
No Charge or Current Charge


@<TRIPOS>ATOM
      1 C13          5.8980    -2.6460    26.5350 c3         1 EUU      -0.326100
      2 C15          8.9480    -1.1380    31.4590 ca         1 EUU       0.003000
      3 C17          9.9030    -1.8340    33.5750 ca         1 EUU      -0.030200
      4 C20         11.4290    -1.0290    32.1210 cc         1 EUU      -0.225200
      5 C21         12.0920    -1.3930    33.2870 cd         1 EUU      -0.164100
      6 C24         11.3720    -3.9820    35.6170 c3         1 EUU      -0.138400
      7 C28         12.9350    -6.6560    36.1450 c3         1 EUU       0.157100
      8 C01          5.5970    -1.0600    28.8740 ca         1 EUU       0.041900
      9 C03          4.0740    -1.1130    30.5890 ca         1 EUU       0.381900
     10 C04          5.1190    -1.2700    31.5100 ca         1 EUU      -0.261000
     11 C05          6.4440    -1.3330    31.0180 cp         1 EUU       0.224500
     12 C09          2.2150    -2.9080    32.5190 c3         1 EUU      -0.107400
     13 C14          7.6430    -1.5050    31.9070 cp         1 EUU      -0.204500
     14 C16         10.0390    -1.3160    32.3190 ca         1 EUU      -0.115800
     15 C18          8.6450    -2.2140    34.0630 ca         1 EUU      -0.138000
     16 C19          7.5220    -2.0490    33.2250 ca         1 EUU      -0.071000
     17 C25         12.4910    -4.6290    34.7640 c3         1 EUU       0.171800
     18 C27         11.3830    -6.7930    34.2270 c3         1 EUU       0.157100
     19 C29          1.6060    -3.3280    33.8720 c3         1 EUU      -0.089100
     20 N02          4.3050    -1.0050    29.2720 nb         1 EUU      -0.199000
     21 N06          6.6650    -1.2220    29.6910 nb         1 EUU      -0.198000
     22 N07          2.7410    -1.0350    30.9740 nu         1 EUU      -0.925100
     23 N22         11.1420    -1.9010    34.2020 na         1 EUU      -0.087700
     24 N26         12.5580    -6.1130    34.8190 n3         1 EUU      -0.723600
     25 S10          5.9270    -0.9350    27.0860 sy         1 EUU       0.988100
     26 H1           6.6780    -3.1930    27.0760 h1         1 EUU       0.106367
     27 H2           4.9090    -3.0610    26.7580 h1         1 EUU       0.106367
     28 H3           6.0900    -2.6610    25.4580 h1         1 EUU       0.106367
     29 H4           9.1100    -0.7160    30.4690 ha         1 EUU       0.138000
     30 H5          11.8950    -0.6070    31.2320 ha         1 EUU       0.210000
     31 H6          13.1500    -1.3340    33.5290 h4         1 EUU       0.213000
     32 H7          10.3940    -4.3510    35.2880 hc         1 EUU       0.053200
     33 H8          11.4890    -4.2800    36.6650 hc         1 EUU       0.053200
     34 H9          13.8440    -6.1670    36.5220 h1         1 EUU       0.029867
     35 H10         12.1320    -6.5050    36.8790 h1         1 EUU       0.029867
     36 H11         13.1350    -7.7340    36.0770 h1         1 EUU       0.029867
     37 H12          4.9140    -1.3250    32.5710 ha         1 EUU       0.132000
     38 H13          2.6890    -0.8600    33.0890 h1         1 EUU       0.053700
     39 H14          1.1090    -1.0610    32.3150 h1         1 EUU       0.053700
     40 H15          1.6770    -3.4200    31.7120 hc         1 EUU       0.050200
     41 H16          3.2550    -3.2520    32.4790 hc         1 EUU       0.050200
     42 H17          8.5290    -2.6300    35.0600 ha         1 EUU       0.114000
     43 H18          6.5530    -2.3620    33.6030 ha         1 EUU       0.107000
     44 H19         12.3330    -2.0600    35.9220 h1         1 EUU       0.058200
     45 H20         10.5900    -2.0490    36.2210 h1         1 EUU       0.058200
     46 H21         13.4540    -4.2090    35.0870 h1         1 EUU       0.055200
     47 H22         12.3540    -4.3150    33.7190 h1         1 EUU       0.055200
     48 H23         11.5650    -7.8730    34.1410 h1         1 EUU       0.029867
     49 H24         10.4870    -6.6480    34.8450 h1         1 EUU       0.029867
     50 H25         11.1750    -6.4050    33.2210 h1         1 EUU       0.029867
     51 H26          1.6650    -4.4150    33.9970 hc         1 EUU       0.036367
     52 H27          2.1460    -2.8570    34.7030 hc         1 EUU       0.036367
     53 H28          0.5510    -3.0320    33.9320 hc         1 EUU       0.036367
     54 H29          2.0860    -0.8890    30.2030 hn         1 EUU       0.512000
     55 C23         11.3700    -2.4380    35.5550 c3         1 EUU       0.081600
     56 O11          7.3040    -0.4620    26.8760 o          1 EUU      -0.502000
     57 C08          2.1600    -1.3840    32.2810 c3         1 EUU       0.227800
     58 O12          4.7920    -0.2730    26.4250 o          1 EUU      -0.502000
@<TRIPOS>BOND
     1     1    25 1   
     2     1    26 1   
     3     1    27 1   
     4     1    28 1   
     5     2    13 ar  
     6     2    14 ar  
     7     2    29 1   
     8     3    14 ar  
     9     3    15 ar  
    10     3    23 1   
    11     4     5 2   
    12     4    14 1   
    13     4    30 1   
    14     5    23 1   
    15     5    31 1   
    16     6    17 1   
    17     6    32 1   
    18     6    33 1   
    19     6    55 1   
    20     7    24 1   
    21     7    34 1   
    22     7    35 1   
    23     7    36 1   
    24     8    20 ar  
    25     8    21 ar  
    26     8    25 1   
    27     9    10 ar  
    28     9    20 ar  
    29     9    22 1   
    30    10    11 ar  
    31    10    37 1   
    32    11    13 1   
    33    11    21 ar  
    34    12    19 1   
    35    12    40 1   
    36    12    41 1   
    37    12    57 1   
    38    13    16 ar  
    39    15    16 ar  
    40    15    42 1   
    41    16    43 1   
    42    17    24 1   
    43    17    46 1   
    44    17    47 1   
    45    18    24 1   
    46    18    48 1   
    47    18    49 1   
    48    18    50 1   
    49    19    51 1   
    50    19    52 1   
    51    19    53 1   
    52    22    54 1   
    53    22    57 1   
    54    23    55 1   
    55    25    56 2   
    56    25    58 2   
    57    38    57 1   
    58    39    57 1   
    59    44    55 1   
    60    45    55 1   
@<TRIPOS>SUBSTRUCTURE
     1 EUU         1 TEMP              0 ****  ****    0 ROOT
