@<TRIPOS>MOLECULE
EUW
   70    73     1     0     0
SMALL
No Charge or Current Charge


@<TRIPOS>ATOM
      1 C4           5.5150     0.7880     0.1160 ca         1 EUW       0.445900
      2 C5           5.6600     1.8620     1.0140 ca         1 EUW      -0.110000
      3 C6           4.5270     2.6570     1.2520 ca         1 EUW       0.180900
      4 N1           3.3490     2.3950     0.6550 nb         1 EUW      -0.255000
      5 N3           4.3370     0.5180    -0.4690 nb         1 EUW      -0.327000
      6 C2           3.3160     1.3300    -0.1640 ca         1 EUW       0.425900
      7 CAH          0.8230     1.5030    -0.7610 ca         1 EUW       0.333000
      8 CAI          0.0070     1.3700    -1.8970 ca         1 EUW      -0.158000
      9 CAJ         -1.3250     1.8200    -1.8800 ca         1 EUW      -0.062000
     10 CAK         -1.8600     2.4040    -0.7170 ca         1 EUW      -0.150300
     11 CAL         -1.0520     2.5230     0.4290 ca         1 EUW      -0.062000
     12 CAM          0.2800     2.0720     0.4070 ca         1 EUW      -0.158000
     13 CAN         -3.3010     2.8920    -0.6950 c3         1 EUW       0.281100
     14 CAP         -5.5670     1.8750    -0.1290 cc         1 EUW      -0.009200
     15 CAQ         -6.5790     1.0070     0.2480 cd         1 EUW      -0.030200
     16 CAR         -7.6500     2.0310     0.0570 c          1 EUW       0.482300
     17 CAS         -6.5180     3.0010    -0.3650 c          1 EUW       0.481300
     18 CAW         -7.8140    -1.0820     1.0370 c3         1 EUW       0.205800
     19 CAX         -8.5700    -1.6050    -0.2090 c3         1 EUW       0.076000
     20 CAZ         -9.8650    -3.5660     0.7140 c          1 EUW       0.595100
     21 CBA        -11.2770    -4.0970     0.9820 c3         1 EUW      -0.156400
     22 CBB        -11.6520    -5.2390     0.0120 c3         1 EUW      -0.078100
     23 CBE          6.8340    -1.1280    -1.0110 ca         1 EUW       0.360000
     24 CBF          7.7950    -2.1160    -0.6660 ca         1 EUW      -0.203600
     25 CBG          8.0130    -3.1950    -1.5640 ca         1 EUW      -0.066000
     26 CBH          7.3070    -3.2810    -2.7730 ca         1 EUW      -0.143000
     27 CBI          6.3810    -2.2910    -3.1170 ca         1 EUW      -0.066000
     28 CBJ          6.1530    -1.2200    -2.2430 ca         1 EUW      -0.135000
     29 CBK          8.5870    -2.0300     0.6260 c          1 EUW       0.616700
     30 CBN         10.0970    -3.2660     2.2110 c3         1 EUW       0.092300
     31 NAG          2.1370     1.0280    -0.8250 nu         1 EUW      -0.927900
     32 NAO         -4.1820     1.8010    -0.2630 nu         1 EUW      -0.796200
     33 NAV         -6.6060    -0.3220     0.6530 nu         1 EUW      -0.797200
     34 NAY         -9.8100    -2.3260     0.1180 ns         1 EUW      -0.508900
     35 NBD          6.5890    -0.0580    -0.1480 nu         1 EUW      -0.940900
     36 NBM          9.2650    -3.1650     1.0090 ns         1 EUW      -0.490900
     37 OAT         -6.4540     4.1770    -0.7290 o          1 EUW      -0.496100
     38 OAU         -8.8760     2.0900     0.1730 o          1 EUW      -0.505100
     39 OBC         -8.8580    -4.1830     1.0320 o          1 EUW      -0.609100
     40 OBL          8.6620    -1.0080     1.2990 o          1 EUW      -0.631100
     41 Cl1          7.1920     2.2210     1.8180 cl         1 EUW      -0.162000
     42 H1           4.5610     3.5110     1.9260 h4         1 EUW       0.036100
     43 H2           0.4060     0.9230    -2.8030 ha         1 EUW       0.133500
     44 H3          -1.9400     1.7140    -2.7720 ha         1 EUW       0.116500
     45 H4          -1.4560     2.9580     1.3410 ha         1 EUW       0.116500
     46 H5           0.8750     2.1510     1.3100 ha         1 EUW       0.133500
     47 H6          -3.3910     3.7470    -0.0100 h1         1 EUW       0.059700
     48 H7          -3.5890     3.2380    -1.6970 h1         1 EUW       0.059700
     49 H8          -8.4900    -0.4430     1.6220 h1         1 EUW       0.066200
     50 H9          -7.5330    -1.9320     1.6730 h1         1 EUW       0.066200
     51 H10         -8.8250    -0.7560    -0.8570 h1         1 EUW       0.060700
     52 H11         -7.9110    -2.2740    -0.7790 h1         1 EUW       0.060700
     53 H12        -11.3190    -4.4900     2.0050 hc         1 EUW       0.055700
     54 H13        -12.0130    -3.2930     0.8650 hc         1 EUW       0.055700
     55 H14        -11.6210    -4.8900    -1.0280 hc         1 EUW       0.043367
     56 H15        -10.9560    -6.0810     0.1140 hc         1 EUW       0.043367
     57 H16        -12.6640    -5.6040     0.2210 hc         1 EUW       0.043367
     58 H17          8.7440    -3.9700    -1.3510 ha         1 EUW       0.112000
     59 H18          7.4920    -4.1120    -3.4510 ha         1 EUW       0.120000
     60 H19          5.8460    -2.3490    -4.0630 ha         1 EUW       0.117000
     61 H20          5.4520    -0.4500    -2.5410 ha         1 EUW       0.144000
     62 H21         10.9150    -2.5360     2.1570 h1         1 EUW       0.044367
     63 H22          9.4860    -3.0650     3.1010 h1         1 EUW       0.044367
     64 H23         10.5180    -4.2770     2.2830 h1         1 EUW       0.044367
     65 H24          2.2880     0.3530    -1.5720 hn         1 EUW       0.509000
     66 H25         -3.7360     0.9060    -0.0430 hn         1 EUW       0.487000
     67 H26         -5.7040    -0.8070     0.7130 hn         1 EUW       0.490000
     68 H27        -10.6970    -1.8890    -0.1050 hn         1 EUW       0.318500
     69 H28          7.3250     0.0200     0.5650 hn         1 EUW       0.556000
     70 H29          9.1540    -3.9860     0.4280 hn         1 EUW       0.321500
@<TRIPOS>BOND
     1     1     2 ar  
     2     1     5 ar  
     3     1    35 1   
     4     2     3 ar  
     5     2    41 1   
     6     3     4 ar  
     7     3    42 1   
     8     4     6 ar  
     9     5     6 ar  
    10     6    31 1   
    11     7     8 ar  
    12     7    12 ar  
    13     7    31 1   
    14     8     9 ar  
    15     8    43 1   
    16     9    10 ar  
    17     9    44 1   
    18    10    11 ar  
    19    10    13 1   
    20    11    12 ar  
    21    11    45 1   
    22    12    46 1   
    23    13    32 1   
    24    13    47 1   
    25    13    48 1   
    26    14    15 2   
    27    14    17 1   
    28    14    32 1   
    29    15    16 1   
    30    15    33 1   
    31    16    17 1   
    32    16    38 2   
    33    17    37 2   
    34    18    19 1   
    35    18    33 1   
    36    18    49 1   
    37    18    50 1   
    38    19    34 1   
    39    19    51 1   
    40    19    52 1   
    41    20    21 1   
    42    20    34 1   
    43    20    39 2   
    44    21    22 1   
    45    21    53 1   
    46    21    54 1   
    47    22    55 1   
    48    22    56 1   
    49    22    57 1   
    50    23    24 ar  
    51    23    28 ar  
    52    23    35 1   
    53    24    25 ar  
    54    24    29 1   
    55    25    26 ar  
    56    25    58 1   
    57    26    27 ar  
    58    26    59 1   
    59    27    28 ar  
    60    27    60 1   
    61    28    61 1   
    62    29    36 1   
    63    29    40 2   
    64    30    36 1   
    65    30    62 1   
    66    30    63 1   
    67    30    64 1   
    68    31    65 1   
    69    32    66 1   
    70    33    67 1   
    71    34    68 1   
    72    35    69 1   
    73    36    70 1   
@<TRIPOS>SUBSTRUCTURE
     1 EUW         1 TEMP              0 ****  ****    0 ROOT
