@<TRIPOS>MOLECULE
EUW
   70    73     1     0     0
SMALL
abcg2


@<TRIPOS>ATOM
      1 C4           5.3670     0.6040     0.5040 ca         1 EUW       0.445900
      2 C5           5.1670     1.3540     1.6890 ca         1 EUW      -0.110000
      3 C6           3.9130     1.8600     1.9070 ca         1 EUW       0.180900
      4 N1           2.9000     1.6850     1.0620 nb         1 EUW      -0.255000
      5 N3           4.3560     0.4320    -0.3260 nb         1 EUW      -0.327000
      6 C2           3.1760     0.9760    -0.0230 ca         1 EUW       0.425900
      7 CAH          0.8820     1.1250    -1.0350 ca         1 EUW       0.333000
      8 CAI          0.2080     0.7860    -2.2130 ca         1 EUW      -0.158000
      9 CAJ         -1.1240     1.1150    -2.3880 ca         1 EUW      -0.062000
     10 CAK         -1.8320     1.7890    -1.3990 ca         1 EUW      -0.150300
     11 CAL         -1.1600     2.1170    -0.2280 ca         1 EUW      -0.062000
     12 CAM          0.1770     1.8010    -0.0350 ca         1 EUW      -0.158000
     13 CAN         -3.2850     2.1210    -1.5840 c3         1 EUW       0.281100
     14 CAP         -5.2640     1.4600    -0.2900 cc         1 EUW      -0.009200
     15 CAQ         -6.2890     0.6940     0.2880 cd         1 EUW      -0.030200
     16 CAR         -7.0390     1.8910     0.6680 c          1 EUW       0.482300
     17 CAS         -5.9420     2.7130     0.0530 c          1 EUW       0.481300
     18 CAW         -7.7130    -1.1600     0.9850 c3         1 EUW       0.205800
     19 CAX         -8.8310    -1.2060    -0.0590 c3         1 EUW       0.076000
     20 CAZ        -10.2380    -3.1270     0.5260 c          1 EUW       0.595100
     21 CBA        -11.5370    -3.5540     1.1770 c3         1 EUW      -0.156400
     22 CBB        -12.0870    -4.8500     0.6040 c3         1 EUW      -0.078100
     23 CBE          6.9870    -0.7010    -0.8450 ca         1 EUW       0.360000
     24 CBF          8.0440    -1.6180    -0.6660 ca         1 EUW      -0.203600
     25 CBG          8.5050    -2.3470    -1.7620 ca         1 EUW      -0.066000
     26 CBH          7.9310    -2.2120    -3.0130 ca         1 EUW      -0.143000
     27 CBI          6.8830    -1.3190    -3.1780 ca         1 EUW      -0.066000
     28 CBJ          6.4160    -0.5690    -2.1130 ca         1 EUW      -0.135000
     29 CBK          8.7070    -1.7780     0.6620 c          1 EUW       0.616700
     30 CBN          9.9060    -3.2620     2.1740 c3         1 EUW       0.092300
     31 NAG          2.2160     0.7460    -0.9600 nu         1 EUW      -0.927900
     32 NAO         -4.1300     1.1520    -0.9000 nu         1 EUW      -0.796200
     33 NAV         -6.4880    -0.6070     0.4440 nu         1 EUW      -0.797200
     34 NAY        -10.0400    -1.7980     0.4590 ns         1 EUW      -0.508900
     35 NBD          6.5790     0.0660     0.2440 nu         1 EUW      -0.940900
     36 NBM          9.2080    -2.9850     0.9400 ns         1 EUW      -0.490900
     37 OAT         -5.7150     3.8960    -0.0970 o          1 EUW      -0.496100
     38 OAU         -8.0950     2.1170     1.2240 o          1 EUW      -0.505100
     39 OBC         -9.4180    -3.9330     0.1060 o          1 EUW      -0.609100
     40 OBL          8.7950    -0.8420     1.4600 o          1 EUW      -0.631100
     41 CL1          6.4430     1.6190     2.8190 cl         1 EUW      -0.162000
     42 H1           3.7090     2.4370     2.8020 h4         1 EUW       0.036100
     43 H2           0.7350     0.2630    -3.0020 ha         1 EUW       0.133500
     44 H3          -1.6150     0.8420    -3.3140 ha         1 EUW       0.116500
     45 H4          -1.6840     2.6410     0.5630 ha         1 EUW       0.116500
     46 H5           0.6660     2.0850     0.8820 ha         1 EUW       0.133500
     47 H6          -3.5100     3.1080    -1.1830 h1         1 EUW       0.059700
     48 H7          -3.5320     2.1430    -2.6490 h1         1 EUW       0.059700
     49 H8          -8.0290    -0.5740     1.8480 h1         1 EUW       0.066200
     50 H9          -7.4890    -2.1650     1.3390 h1         1 EUW       0.066200
     51 H10         -9.0690    -0.1950    -0.3890 h1         1 EUW       0.060700
     52 H11         -8.4970    -1.7660    -0.9330 h1         1 EUW       0.060700
     53 H12        -11.3370    -3.6760     2.2460 hc         1 EUW       0.055700
     54 H13        -12.2790    -2.7570     1.1000 hc         1 EUW       0.055700
     55 H14        -12.3440    -4.7440    -0.4500 hc         1 EUW       0.043367
     56 H15        -11.3680    -5.6630     0.6940 hc         1 EUW       0.043367
     57 H16        -12.9900    -5.1450     1.1370 hc         1 EUW       0.043367
     58 H17          9.3420    -3.0220    -1.6430 ha         1 EUW       0.112000
     59 H18          8.3060    -2.7890    -3.8480 ha         1 EUW       0.120000
     60 H19          6.4270    -1.1900    -4.1510 ha         1 EUW       0.117000
     61 H20          5.6110     0.1290    -2.2690 ha         1 EUW       0.144000
     62 H21         10.7270    -2.5630     2.3280 h1         1 EUW       0.044367
     63 H22          9.2420    -3.2100     3.0380 h1         1 EUW       0.044367
     64 H23         10.3170    -4.2660     2.1150 h1         1 EUW       0.044367
     65 H24          2.5570     0.2180    -1.7490 hn         1 EUW       0.509000
     66 H25         -3.9230     0.1790    -1.0680 hn         1 EUW       0.487000
     67 H26         -5.8400    -1.2510     0.0190 hn         1 EUW       0.490000
     68 H27        -10.7400    -1.1830     0.8420 hn         1 EUW       0.318500
     69 H28          7.2800     0.1260     0.9790 hn         1 EUW       0.556000
     70 H29          9.0140    -3.7580     0.3250 hn         1 EUW       0.321500
@<TRIPOS>BOND
     1     1     2 ar  
     2     1     5 ar  
     3     1    35 1   
     4     2     3 ar  
     5     2    41 1   
     6     3     4 ar  
     7     3    42 1   
     8     4     6 ar  
     9     5     6 ar  
    10     6    31 1   
    11     7     8 ar  
    12     7    12 ar  
    13     7    31 1   
    14     8     9 ar  
    15     8    43 1   
    16     9    10 ar  
    17     9    44 1   
    18    10    11 ar  
    19    10    13 1   
    20    11    12 ar  
    21    11    45 1   
    22    12    46 1   
    23    13    32 1   
    24    13    47 1   
    25    13    48 1   
    26    14    15 2   
    27    14    17 1   
    28    14    32 1   
    29    15    16 1   
    30    15    33 1   
    31    16    17 1   
    32    16    38 2   
    33    17    37 2   
    34    18    19 1   
    35    18    33 1   
    36    18    49 1   
    37    18    50 1   
    38    19    34 1   
    39    19    51 1   
    40    19    52 1   
    41    20    21 1   
    42    20    34 1   
    43    20    39 2   
    44    21    22 1   
    45    21    53 1   
    46    21    54 1   
    47    22    55 1   
    48    22    56 1   
    49    22    57 1   
    50    23    24 ar  
    51    23    28 ar  
    52    23    35 1   
    53    24    25 ar  
    54    24    29 1   
    55    25    26 ar  
    56    25    58 1   
    57    26    27 ar  
    58    26    59 1   
    59    27    28 ar  
    60    27    60 1   
    61    28    61 1   
    62    29    36 1   
    63    29    40 2   
    64    30    36 1   
    65    30    62 1   
    66    30    63 1   
    67    30    64 1   
    68    31    65 1   
    69    32    66 1   
    70    33    67 1   
    71    34    68 1   
    72    35    69 1   
    73    36    70 1   
@<TRIPOS>SUBSTRUCTURE
     1 EUW         1 TEMP              0 ****  ****    0 ROOT
