@<TRIPOS>MOLECULE
EUX
   81    87     1     0     0
SMALL
abcg2


@<TRIPOS>ATOM
      1 C1         -54.5210     0.9590   -23.1280 ca         1 EUX       0.400900
      2 C3         -53.6980    -0.4260   -24.7510 ca         1 EUX       0.260500
      3 C5         -55.6770     0.5980   -25.1660 ca         1 EUX       0.139900
      4 C6         -55.6330     1.2360   -23.9520 ca         1 EUX      -0.284000
      5 N2         -53.5630     0.1270   -23.5400 nb         1 EUX      -0.263000
      6 C7         -52.6080    -1.2980   -25.1850 cc         1 EUX      -0.252500
      7 C8         -52.5040    -2.0530   -26.3860 cc         1 EUX       0.318900
      8 C11        -51.4300    -1.5390   -24.5140 cd         1 EUX      -0.070000
      9 C13        -49.6860    -4.6990   -24.4050 cx         1 EUX      -0.453700
     10 C16        -50.3580    -4.8600   -23.0690 cx         1 EUX      -0.060900
     11 C17        -48.9460    -5.3160   -23.2420 cx         1 EUX      -0.060900
     12 C18        -52.8060     2.3440   -18.8800 ca         1 EUX       0.429900
     13 C19        -51.8790     1.3310   -18.6780 cp         1 EUX      -0.140000
     14 C20        -51.7960     0.3040   -19.6570 ca         1 EUX       0.042800
     15 C21        -52.6120     0.3320   -20.7810 ca         1 EUX      -0.209000
     16 C22        -53.5010     1.4040   -20.8710 ca         1 EUX       0.608900
     17 C26        -50.3160    -0.2220   -18.0410 ca         1 EUX       0.064800
     18 C27        -50.9250     0.9900   -17.6570 cp         1 EUX      -0.121000
     19 C28        -50.5330     1.5820   -16.4530 ca         1 EUX       0.210100
     20 C29        -49.5820     0.9760   -15.6550 ca         1 EUX      -0.261000
     21 C30        -48.9940    -0.2570   -16.0360 ca         1 EUX       0.355000
     22 C31        -49.3690    -0.8620   -17.2410 ca         1 EUX      -0.229000
     23 C33        -49.0200    -1.8360   -20.4260 c3         1 EUX      -0.107600
     24 C34        -50.9530    -3.0920   -19.3310 c3         1 EUX      -0.107600
     25 C36        -48.2930    -0.8670   -13.7700 c6         1 EUX       0.197800
     26 C37        -47.0320    -1.1640   -12.9800 c6         1 EUX       0.155300
     27 C39        -46.1090    -2.3190   -14.8440 c6         1 EUX       0.155300
     28 C40        -47.3550    -2.0380   -15.6680 c6         1 EUX       0.197800
     29 C43        -50.7700     3.4400   -14.9740 c3         1 EUX       0.096600
     30 C44        -51.5620     4.7290   -14.9390 c3         1 EUX       0.296000
     31 F45        -52.8920     4.5140   -14.9210 f          1 EUX      -0.106333
     32 F46        -51.2500     5.4330   -13.8320 f          1 EUX      -0.106333
     33 F47        -51.3030     5.5130   -16.0040 f          1 EUX      -0.106333
     34 N10        -50.7020    -2.3670   -25.3130 na         1 EUX      -0.010400
     35 N23        -53.6020     2.3800   -19.9500 nb         1 EUX      -0.751000
     36 N24        -54.4300     1.5580   -21.9080 nu         1 EUX      -0.903800
     37 N25        -50.8490    -0.6170   -19.2700 na         1 EUX      -0.104600
     38 N35        -48.0160    -0.8220   -15.2100 nh         1 EUX      -0.790400
     39 N38        -46.4210    -2.4090   -13.4240 n3         1 EUX      -0.717600
     40 N4         -54.7170    -0.2450   -25.5910 nb         1 EUX      -0.208000
     41 N9         -51.3600    -2.7050   -26.4590 nd         1 EUX      -0.496800
     42 O42        -51.1410     2.7710   -16.1580 os         1 EUX      -0.333100
     43 S12        -49.2120    -3.1020   -24.9270 s6         1 EUX       1.305200
     44 H1         -56.5120     0.7570   -25.8390 h4         1 EUX       0.025100
     45 H2         -56.4160     1.9120   -23.6360 ha         1 EUX       0.135000
     46 H3         -53.2240    -2.1300   -27.1840 h4         1 EUX       0.057100
     47 H4         -51.0580    -1.1870   -23.5690 h4         1 EUX       0.185000
     48 H5         -49.9870    -5.3140   -25.2420 h1         1 EUX       0.149700
     49 H6         -50.5250    -3.9660   -22.4860 hc         1 EUX       0.088950
     50 H7         -51.1490    -5.5950   -23.0300 hc         1 EUX       0.088950
     51 H8         -48.7380    -6.3730   -23.3320 hc         1 EUX       0.088950
     52 H9         -48.1710    -4.7250   -22.7760 hc         1 EUX       0.088950
     53 H10        -52.9200     3.1470   -18.1620 h4         1 EUX       0.036100
     54 H11        -52.5870    -0.4200   -21.5490 ha         1 EUX       0.151000
     55 H12        -49.2550     1.4550   -14.7470 ha         1 EUX       0.120000
     56 H13        -48.9520    -1.8080   -17.5310 ha         1 EUX       0.123000
     57 H14        -51.0700    -1.7350   -20.9650 h1         1 EUX       0.059700
     58 H15        -48.7430    -0.9040   -20.9220 hc         1 EUX       0.048867
     59 H16        -48.3730    -1.9730   -19.5610 hc         1 EUX       0.048867
     60 H17        -48.8400    -2.6560   -21.1190 hc         1 EUX       0.048867
     61 H18        -52.0180    -3.0410   -19.1020 hc         1 EUX       0.048867
     62 H19        -50.7790    -3.9520   -19.9780 hc         1 EUX       0.048867
     63 H20        -50.4070    -3.2530   -18.4010 hc         1 EUX       0.048867
     64 H21        -48.6970     0.0840   -13.4380 h1         1 EUX       0.045950
     65 H22        -49.0450    -1.6430   -13.5600 h1         1 EUX       0.045950
     66 H23        -46.3290    -0.3190   -13.0860 h1         1 EUX       0.041950
     67 H24        -47.2890    -1.2520   -11.9220 h1         1 EUX       0.041950
     68 H25        -45.6750    -3.2650   -15.1730 h1         1 EUX       0.041950
     69 H26        -45.3650    -1.5250   -15.0350 h1         1 EUX       0.041950
     70 H27        -48.0350    -2.9030   -15.6140 h1         1 EUX       0.045950
     71 H28        -47.0560    -1.9110   -16.7080 h1         1 EUX       0.045950
     72 H29        -45.5180    -2.8340   -11.5860 h1         1 EUX       0.034033
     73 H30        -44.8280    -3.6890   -12.9770 h1         1 EUX       0.034033
     74 H31        -44.4560    -1.9710   -12.7190 h1         1 EUX       0.034033
     75 H32        -51.0160     2.8590   -14.0810 h1         1 EUX       0.072200
     76 H33        -49.7070     3.6950   -14.9640 h1         1 EUX       0.072200
     77 H34        -55.1190     2.2700   -21.7110 hn         1 EUX       0.516000
     78 C32        -50.4980    -1.8180   -20.0420 c3         1 EUX       0.096300
     79 O14        -48.4710    -3.1830   -26.1520 o          1 EUX      -0.517500
     80 C41        -45.2430    -2.7390   -12.6370 c3         1 EUX       0.151100
     81 O15        -48.7190    -2.3350   -23.8170 o          1 EUX      -0.517500
@<TRIPOS>BOND
     1     1     4 ar  
     2     1     5 ar  
     3     1    36 1   
     4     2     5 ar  
     5     2     6 1   
     6     2    40 ar  
     7     3     4 ar  
     8     3    40 ar  
     9     3    44 1   
    10     4    45 1   
    11     6     7 1   
    12     6     8 2   
    13     7    41 2   
    14     7    46 1   
    15     8    34 1   
    16     8    47 1   
    17     9    10 1   
    18     9    11 1   
    19     9    43 1   
    20     9    48 1   
    21    10    11 1   
    22    10    49 1   
    23    10    50 1   
    24    11    51 1   
    25    11    52 1   
    26    12    13 ar  
    27    12    35 ar  
    28    12    53 1   
    29    13    14 ar  
    30    13    18 1   
    31    14    15 ar  
    32    14    37 1   
    33    15    16 ar  
    34    15    54 1   
    35    16    35 ar  
    36    16    36 1   
    37    17    18 ar  
    38    17    22 ar  
    39    17    37 1   
    40    18    19 ar  
    41    19    20 ar  
    42    19    42 1   
    43    20    21 ar  
    44    20    55 1   
    45    21    22 ar  
    46    21    38 1   
    47    22    56 1   
    48    23    58 1   
    49    23    59 1   
    50    23    60 1   
    51    23    78 1   
    52    24    61 1   
    53    24    62 1   
    54    24    63 1   
    55    24    78 1   
    56    25    26 1   
    57    25    38 1   
    58    25    64 1   
    59    25    65 1   
    60    26    39 1   
    61    26    66 1   
    62    26    67 1   
    63    27    28 1   
    64    27    39 1   
    65    27    68 1   
    66    27    69 1   
    67    28    38 1   
    68    28    70 1   
    69    28    71 1   
    70    29    30 1   
    71    29    42 1   
    72    29    75 1   
    73    29    76 1   
    74    30    31 1   
    75    30    32 1   
    76    30    33 1   
    77    34    41 1   
    78    34    43 1   
    79    36    77 1   
    80    37    78 1   
    81    39    80 1   
    82    43    79 2   
    83    43    81 2   
    84    57    78 1   
    85    72    80 1   
    86    73    80 1   
    87    74    80 1   
@<TRIPOS>SUBSTRUCTURE
     1 EUX         1 TEMP              0 ****  ****    0 ROOT
