@<TRIPOS>MOLECULE
EUX
   81    87     1     0     0
SMALL
No Charge or Current Charge


@<TRIPOS>ATOM
      1 C1         -54.4120     1.1240   -23.2550 ca         1 EUX       0.400900
      2 C3         -53.6730    -0.1700   -25.0080 ca         1 EUX       0.260500
      3 C5         -55.5770     1.0770   -25.3450 ca         1 EUX       0.139900
      4 C6         -55.4800     1.5740   -24.0360 ca         1 EUX      -0.284000
      5 N2         -53.5070     0.2640   -23.7400 nb         1 EUX      -0.263000
      6 C7         -52.6900    -1.1170   -25.5320 cc         1 EUX      -0.252500
      7 C8         -52.6540    -1.7940   -26.7560 cc         1 EUX       0.318900
      8 C11        -51.5920    -1.5110   -24.8220 cd         1 EUX      -0.070000
      9 C13        -50.1010    -4.8570   -24.4610 cx         1 EUX      -0.453700
     10 C16        -50.6790    -4.8310   -23.0590 cx         1 EUX      -0.060900
     11 C17        -49.3570    -5.5240   -23.3190 cx         1 EUX      -0.060900
     12 C18        -52.7060     2.2190   -18.9080 ca         1 EUX       0.429900
     13 C19        -51.8250     1.1330   -18.7130 cp         1 EUX      -0.140000
     14 C20        -51.7750     0.1350   -19.6720 ca         1 EUX       0.042800
     15 C21        -52.5740     0.1960   -20.8150 ca         1 EUX      -0.209000
     16 C22        -53.4020     1.3310   -20.9280 ca         1 EUX       0.608900
     17 C26        -50.2730    -0.4170   -17.9640 ca         1 EUX       0.064800
     18 C27        -50.8880     0.7910   -17.6420 cp         1 EUX      -0.121000
     19 C28        -50.5520     1.4500   -16.4460 ca         1 EUX       0.210100
     20 C29        -49.5910     0.8650   -15.5920 ca         1 EUX      -0.261000
     21 C30        -48.9760    -0.3610   -15.9300 ca         1 EUX       0.355000
     22 C31        -49.3180    -1.0160   -17.1330 ca         1 EUX      -0.229000
     23 C33        -48.9630    -1.9650   -20.4380 c3         1 EUX      -0.107600
     24 C34        -50.8140    -3.3200   -19.2650 c3         1 EUX      -0.107600
     25 C36        -48.3900    -1.2060   -13.6300 c6         1 EUX       0.197800
     26 C37        -47.1430    -1.2830   -12.6890 c6         1 EUX       0.155300
     27 C39        -45.7040    -1.8630   -14.5800 c6         1 EUX       0.155300
     28 C40        -46.9230    -1.7980   -15.5590 c6         1 EUX       0.197800
     29 C43        -50.9130     3.3990   -14.9740 c3         1 EUX       0.096600
     30 C44        -51.7820     4.6760   -14.9710 c3         1 EUX       0.296000
     31 F45        -53.1000     4.3700   -15.0000 f          1 EUX      -0.106333
     32 F46        -51.5510     5.4080   -13.8580 f          1 EUX      -0.106333
     33 F47        -51.5100     5.4550   -16.0440 f          1 EUX      -0.106333
     34 N10        -50.9250    -2.4270   -25.6550 na         1 EUX      -0.010400
     35 N23        -53.4910     2.3090   -20.0150 nb         1 EUX      -0.751000
     36 N24        -54.2550     1.5950   -21.9620 nu         1 EUX      -0.903800
     37 N25        -50.8310    -0.7980   -19.2040 na         1 EUX      -0.104600
     38 N35        -48.0200    -0.9130   -15.0510 nh         1 EUX      -0.790400
     39 N38        -46.0980    -2.2310   -13.1860 n3         1 EUX      -0.717600
     40 N4         -54.6750     0.2040   -25.8340 nb         1 EUX      -0.208000
     41 N9         -51.6140    -2.5950   -26.8800 nd         1 EUX      -0.496800
     42 O42        -51.1850     2.6440   -16.1730 os         1 EUX      -0.333100
     43 S12        -49.4580    -3.3010   -25.2620 s6         1 EUX       1.305200
     44 H1         -56.3830     1.3800   -26.0110 h4         1 EUX       0.025100
     45 H2         -56.2110     2.2780   -23.6520 ha         1 EUX       0.135000
     46 H3         -53.3670    -1.7300   -27.5670 h4         1 EUX       0.057100
     47 H4         -51.2350    -1.2380   -23.8340 h4         1 EUX       0.185000
     48 H5         -50.5880    -5.4620   -25.2230 h1         1 EUX       0.149700
     49 H6         -50.6590    -3.8940   -22.5070 hc         1 EUX       0.088950
     50 H7         -51.5440    -5.4570   -22.8500 hc         1 EUX       0.088950
     51 H8         -49.3420    -6.6120   -23.2850 hc         1 EUX       0.088950
     52 H9         -48.4560    -5.0500   -22.9330 hc         1 EUX       0.088950
     53 H10        -52.7860     3.0240   -18.1790 h4         1 EUX       0.036100
     54 H11        -52.5650    -0.5860   -21.5600 ha         1 EUX       0.151000
     55 H12        -49.3010     1.3550   -14.6700 ha         1 EUX       0.120000
     56 H13        -48.8600    -1.9610   -17.3960 ha         1 EUX       0.123000
     57 H14        -51.0290    -1.9920   -20.9010 h1         1 EUX       0.059700
     58 H15        -48.7600    -1.0410   -20.9930 hc         1 EUX       0.048867
     59 H16        -48.2710    -2.0140   -19.5910 hc         1 EUX       0.048867
     60 H17        -48.7460    -2.8100   -21.1010 hc         1 EUX       0.048867
     61 H18        -51.8820    -3.3280   -19.0180 hc         1 EUX       0.048867
     62 H19        -50.6110    -4.1790   -19.9140 hc         1 EUX       0.048867
     63 H20        -50.2490    -3.4580   -18.3380 hc         1 EUX       0.048867
     64 H21        -49.0710    -0.4380   -13.2360 h1         1 EUX       0.045950
     65 H22        -48.9260    -2.1650   -13.5810 h1         1 EUX       0.045950
     66 H23        -46.7180    -0.2730   -12.5940 h1         1 EUX       0.041950
     67 H24        -47.4820    -1.5810   -11.6860 h1         1 EUX       0.041950
     68 H25        -44.9790    -2.5890   -14.9760 h1         1 EUX       0.041950
     69 H26        -45.2060    -0.8820   -14.5830 h1         1 EUX       0.041950
     70 H27        -47.3080    -2.8170   -15.7080 h1         1 EUX       0.045950
     71 H28        -46.5630    -1.4360   -16.5330 h1         1 EUX       0.045950
     72 H29        -45.2610    -2.6500   -11.2720 h1         1 EUX       0.034033
     73 H30        -44.2160    -3.0710   -12.6460 h1         1 EUX       0.034033
     74 H31        -44.4260    -1.3660   -12.1790 h1         1 EUX       0.034033
     75 H32        -51.1480     2.8060   -14.0810 h1         1 EUX       0.072200
     76 H33        -49.8550     3.6880   -14.9290 h1         1 EUX       0.072200
     77 H34        -54.8390     2.3880   -21.7280 hn         1 EUX       0.516000
     78 C32        -50.4380    -2.0020   -19.9780 c3         1 EUX       0.096300
     79 O14        -48.7970    -3.7100   -26.5120 o          1 EUX      -0.517500
     80 C41        -44.9390    -2.3330   -12.2730 c3         1 EUX       0.151100
     81 O15        -48.7480    -2.5460   -24.2170 o          1 EUX      -0.517500
@<TRIPOS>BOND
     1     1     4 ar  
     2     1     5 ar  
     3     1    36 1   
     4     2     5 ar  
     5     2     6 1   
     6     2    40 ar  
     7     3     4 ar  
     8     3    40 ar  
     9     3    44 1   
    10     4    45 1   
    11     6     7 1   
    12     6     8 2   
    13     7    41 2   
    14     7    46 1   
    15     8    34 1   
    16     8    47 1   
    17     9    10 1   
    18     9    11 1   
    19     9    43 1   
    20     9    48 1   
    21    10    11 1   
    22    10    49 1   
    23    10    50 1   
    24    11    51 1   
    25    11    52 1   
    26    12    13 ar  
    27    12    35 ar  
    28    12    53 1   
    29    13    14 ar  
    30    13    18 1   
    31    14    15 ar  
    32    14    37 1   
    33    15    16 ar  
    34    15    54 1   
    35    16    35 ar  
    36    16    36 1   
    37    17    18 ar  
    38    17    22 ar  
    39    17    37 1   
    40    18    19 ar  
    41    19    20 ar  
    42    19    42 1   
    43    20    21 ar  
    44    20    55 1   
    45    21    22 ar  
    46    21    38 1   
    47    22    56 1   
    48    23    58 1   
    49    23    59 1   
    50    23    60 1   
    51    23    78 1   
    52    24    61 1   
    53    24    62 1   
    54    24    63 1   
    55    24    78 1   
    56    25    26 1   
    57    25    38 1   
    58    25    64 1   
    59    25    65 1   
    60    26    39 1   
    61    26    66 1   
    62    26    67 1   
    63    27    28 1   
    64    27    39 1   
    65    27    68 1   
    66    27    69 1   
    67    28    38 1   
    68    28    70 1   
    69    28    71 1   
    70    29    30 1   
    71    29    42 1   
    72    29    75 1   
    73    29    76 1   
    74    30    31 1   
    75    30    32 1   
    76    30    33 1   
    77    34    41 1   
    78    34    43 1   
    79    36    77 1   
    80    37    78 1   
    81    39    80 1   
    82    43    79 2   
    83    43    81 2   
    84    57    78 1   
    85    72    80 1   
    86    73    80 1   
    87    74    80 1   
@<TRIPOS>SUBSTRUCTURE
     1 EUX         1 TEMP              0 ****  ****    0 ROOT
