@<TRIPOS>MOLECULE
EUY
   51    53     1     0     0
SMALL
No Charge or Current Charge


@<TRIPOS>ATOM
      1 C10          0.1770    -0.0520    -1.6720 c          1 EUY       0.553200
      2 C12         -3.4250     0.1670    -0.1900 ca         1 EUY      -0.063800
      3 C13         -4.1540     0.9560     0.7330 ca         1 EUY      -0.081000
      4 C14         -5.5380     0.7820     0.9070 ca         1 EUY      -0.107000
      5 C15         -6.2390    -0.1870     0.1660 ca         1 EUY       0.032800
      6 C16         -5.5270    -0.9780    -0.7550 ca         1 EUY      -0.107000
      7 C17         -4.1430    -0.8030    -0.9320 ca         1 EUY      -0.081000
      8 C01          5.1640    -0.3080    -1.6310 c3         1 EUY      -0.087100
      9 C02          4.7260    -0.1620    -0.1270 c3         1 EUY      -0.294000
     10 C03          3.1520    -0.2210    -0.0280 c3         1 EUY      -0.079400
     11 C06          0.2200     1.1750     0.4320 cc         1 EUY      -0.032400
     12 C07         -1.1410     1.0430     0.6080 cd         1 EUY      -0.290000
     13 C08         -1.9570     0.3590    -0.3700 cd         1 EUY       0.076800
     14 C09         -1.2670    -0.1720    -1.4470 cc         1 EUY      -0.313200
     15 C20         -9.6290     0.0890     0.5780 cc         1 EUY       0.202900
     16 C21         -9.4530    -1.2970     0.5880 cc         1 EUY       0.202900
     17 C23          5.3090    -1.2830     0.7680 c          1 EUY       0.598100
     18 N05          0.8790     0.6530    -0.6770 n          1 EUY      -0.273000
     19 N18         -7.6180    -0.3610     0.3400 na         1 EUY       0.341800
     20 N19         -8.4900     0.7200     0.4230 nd         1 EUY      -0.493800
     21 N22         -8.1920    -1.6250     0.4400 nd         1 EUY      -0.493800
     22 N25          6.2030    -2.1710     0.1770 ns         1 EUY      -0.366400
     23 O11          0.7180    -0.5370    -2.6560 o          1 EUY      -0.563000
     24 O24          4.9690    -1.4220     1.9350 o          1 EUY      -0.563100
     25 O26          6.5770    -3.4040     0.8410 oh         1 EUY      -0.400100
     26 S27          5.4340     1.3980     0.5240 s6         1 EUY       1.056000
     27 H1          -3.6690     1.7350     1.3120 ha         1 EUY       0.124000
     28 H2          -6.0690     1.4080     1.6220 ha         1 EUY       0.144500
     29 H3          -6.0470    -1.7360    -1.3370 ha         1 EUY       0.144500
     30 H4          -3.6420    -1.4570    -1.6380 ha         1 EUY       0.124000
     31 H5           4.7850     0.5170    -2.2460 hc         1 EUY       0.068033
     32 H6           6.2570    -0.2940    -1.7420 hc         1 EUY       0.068033
     33 H7           4.7820    -1.2390    -2.0690 hc         1 EUY       0.068033
     34 H8           2.8260    -1.2110    -0.3730 hc         1 EUY       0.077200
     35 H9           2.8390    -0.1690     1.0230 hc         1 EUY       0.077200
     36 H10          2.5940     1.8450    -0.4710 h1         1 EUY       0.079200
     37 H11          2.6130     0.8000    -1.8860 h1         1 EUY       0.079200
     38 H12          0.8890     1.6750     1.1270 h4         1 EUY       0.198000
     39 H13         -1.5760     1.4530     1.5130 ha         1 EUY       0.202000
     40 H14         -1.7640    -0.7020    -2.2450 ha         1 EUY       0.211000
     41 H15        -10.5500     0.6480     0.6790 h4         1 EUY       0.055100
     42 H16        -10.2050    -2.0670     0.6990 h4         1 EUY       0.055100
     43 H17          4.8470     0.9210     2.7840 h1         1 EUY       0.109367
     44 H18          5.0600     2.6780     2.4720 h1         1 EUY       0.109367
     45 H19          3.5610     1.8530     1.9190 h1         1 EUY       0.109367
     46 H20          6.3400    -2.1480    -0.8310 hn         1 EUY       0.363500
     47 H21          7.5620    -3.3990     0.8000 ho         1 EUY       0.435000
     48 C04          2.3430     0.8380    -0.8240 c3         1 EUY       0.084000
     49 C28          4.6350     1.7430     2.0950 c3         1 EUY      -0.327100
     50 O29          6.8590     1.1700     0.7940 o          1 EUY      -0.517500
     51 O30          5.0570     2.4830    -0.3890 o          1 EUY      -0.517500
@<TRIPOS>BOND
     1     1    14 1   
     2     1    18 1   
     3     1    23 2   
     4     2     3 ar  
     5     2     7 ar  
     6     2    13 1   
     7     3     4 ar  
     8     3    27 1   
     9     4     5 ar  
    10     4    28 1   
    11     5     6 ar  
    12     5    19 1   
    13     6     7 ar  
    14     6    29 1   
    15     7    30 1   
    16     8     9 1   
    17     8    31 1   
    18     8    32 1   
    19     8    33 1   
    20     9    10 1   
    21     9    17 1   
    22     9    26 1   
    23    10    34 1   
    24    10    35 1   
    25    10    48 1   
    26    11    12 2   
    27    11    18 1   
    28    11    38 1   
    29    12    13 1   
    30    12    39 1   
    31    13    14 2   
    32    14    40 1   
    33    15    16 1   
    34    15    20 2   
    35    15    41 1   
    36    16    21 2   
    37    16    42 1   
    38    17    22 1   
    39    17    24 2   
    40    18    48 1   
    41    19    20 1   
    42    19    21 1   
    43    22    25 1   
    44    22    46 1   
    45    25    47 1   
    46    26    49 1   
    47    26    50 2   
    48    26    51 2   
    49    36    48 1   
    50    37    48 1   
    51    43    49 1   
    52    44    49 1   
    53    45    49 1   
@<TRIPOS>SUBSTRUCTURE
     1 EUY         1 TEMP              0 ****  ****    0 ROOT
