@<TRIPOS>MOLECULE
EUY
   51    53     1     0     0
SMALL
abcg2


@<TRIPOS>ATOM
      1 C10          0.2000    -0.0780    -1.3620 c          1 EUY       0.553200
      2 C12         -3.3770     0.1410    -0.0620 ca         1 EUY      -0.063800
      3 C13         -4.1990     1.1630     0.4140 ca         1 EUY      -0.081000
      4 C14         -5.5690     0.9990     0.5060 ca         1 EUY      -0.107000
      5 C15         -6.1410    -0.2090     0.1280 ca         1 EUY       0.032800
      6 C16         -5.3410    -1.2480    -0.3360 ca         1 EUY      -0.107000
      7 C17         -3.9740    -1.0650    -0.4270 ca         1 EUY      -0.081000
      8 C01          4.6710    -0.3920    -1.7830 c3         1 EUY      -0.087100
      9 C02          4.4910    -0.2600    -0.2680 c3         1 EUY      -0.294000
     10 C03          3.0080    -0.1070     0.1050 c3         1 EUY      -0.079400
     11 C06          0.1010     1.3680     0.5580 cc         1 EUY      -0.032400
     12 C07         -1.2310     1.1840     0.7220 cd         1 EUY      -0.290000
     13 C08         -1.9220     0.3430    -0.1920 cd         1 EUY       0.076800
     14 C09         -1.2150    -0.2560    -1.1950 cc         1 EUY      -0.313200
     15 C20         -9.5390     0.0240     0.5920 cc         1 EUY       0.202900
     16 C21         -9.4140    -1.2580     0.0430 cc         1 EUY       0.202900
     17 C23          5.0490    -1.4850     0.4950 c          1 EUY       0.598100
     18 N05          0.7970     0.7810    -0.4440 n          1 EUY      -0.273000
     19 N18         -7.5350    -0.3820     0.2120 na         1 EUY       0.341800
     20 N19         -8.3340     0.5490     0.6860 nd         1 EUY      -0.493800
     21 N22         -8.1360    -1.4820    -0.1860 nd         1 EUY      -0.493800
     22 N25          6.2350    -1.9330     0.0600 ns         1 EUY      -0.366400
     23 O11          0.8730    -0.6120    -2.2410 o          1 EUY      -0.563000
     24 O24          4.4350    -2.0050     1.4060 o          1 EUY      -0.563100
     25 O26          6.8020    -3.0200     0.6430 oh         1 EUY      -0.400100
     26 S27          5.4630     1.2150     0.2420 s6         1 EUY       1.056000
     27 H1          -3.7760     2.1170     0.6970 ha         1 EUY       0.124000
     28 H2          -6.1830     1.8130     0.8630 ha         1 EUY       0.144500
     29 H3          -5.7770    -2.1930    -0.6230 ha         1 EUY       0.144500
     30 H4          -3.3660    -1.8900    -0.7750 ha         1 EUY       0.124000
     31 H5           4.3420     0.5030    -2.3040 hc         1 EUY       0.068033
     32 H6           5.6980    -0.5790    -2.0890 hc         1 EUY       0.068033
     33 H7           4.0610    -1.2230    -2.1350 hc         1 EUY       0.068033
     34 H8           2.5450    -1.0520    -0.1800 hc         1 EUY       0.077200
     35 H9           2.8870    -0.0320     1.1860 hc         1 EUY       0.077200
     36 H10          2.4340     1.9860    -0.0950 h1         1 EUY       0.079200
     37 H11          2.4660     1.1290    -1.6200 h1         1 EUY       0.079200
     38 H12          0.6730     1.9980     1.2250 h4         1 EUY       0.198000
     39 H13         -1.7320     1.6610     1.5500 ha         1 EUY       0.202000
     40 H14         -1.7050    -0.8820    -1.9290 ha         1 EUY       0.211000
     41 H15        -10.4190     0.5600     0.9070 h4         1 EUY       0.055100
     42 H16        -10.1710    -1.9900    -0.1860 h4         1 EUY       0.055100
     43 H17          5.6090     0.4720     2.5070 h1         1 EUY       0.109367
     44 H18          5.8300     2.2250     2.3080 h1         1 EUY       0.109367
     45 H19          4.1950     1.5320     2.2350 h1         1 EUY       0.109367
     46 H20          6.8350    -1.4200    -0.5690 hn         1 EUY       0.363500
     47 H21          7.2200    -2.7190     1.4620 ho         1 EUY       0.435000
     48 C04          2.2300     1.0280    -0.5640 c3         1 EUY       0.084000
     49 C28          5.2420     1.3610     2.0000 c3         1 EUY      -0.327100
     50 O29          6.8740     0.9400    -0.0290 o          1 EUY      -0.517500
     51 O30          4.8690     2.3870    -0.3980 o          1 EUY      -0.517500
@<TRIPOS>BOND
     1     1    14 1   
     2     1    18 1   
     3     1    23 2   
     4     2     3 ar  
     5     2     7 ar  
     6     2    13 1   
     7     3     4 ar  
     8     3    27 1   
     9     4     5 ar  
    10     4    28 1   
    11     5     6 ar  
    12     5    19 1   
    13     6     7 ar  
    14     6    29 1   
    15     7    30 1   
    16     8     9 1   
    17     8    31 1   
    18     8    32 1   
    19     8    33 1   
    20     9    10 1   
    21     9    17 1   
    22     9    26 1   
    23    10    34 1   
    24    10    35 1   
    25    10    48 1   
    26    11    12 2   
    27    11    18 1   
    28    11    38 1   
    29    12    13 1   
    30    12    39 1   
    31    13    14 2   
    32    14    40 1   
    33    15    16 1   
    34    15    20 2   
    35    15    41 1   
    36    16    21 2   
    37    16    42 1   
    38    17    22 1   
    39    17    24 2   
    40    18    48 1   
    41    19    20 1   
    42    19    21 1   
    43    22    25 1   
    44    22    46 1   
    45    25    47 1   
    46    26    49 1   
    47    26    50 2   
    48    26    51 2   
    49    36    48 1   
    50    37    48 1   
    51    43    49 1   
    52    44    49 1   
    53    45    49 1   
@<TRIPOS>SUBSTRUCTURE
     1 EUY         1 TEMP              0 ****  ****    0 ROOT
