@<TRIPOS>MOLECULE
EV0
   22    22     1     0     0
SMALL
bcc


@<TRIPOS>ATOM
      1 O11         -2.4380    -2.2110    -0.0130 o          1 EV0      -0.630500
      2 C3          -1.6540    -1.2740     0.0680 c          1 EV0       0.724700
      3 C1          -0.2560    -1.3350     0.3510 cc         1 EV0      -0.371200
      4 N5          -2.1140     0.0260    -0.1260 ns         1 EV0      -0.510400
      5 C6          -1.3200     1.1240    -0.0560 cc         1 EV0       0.738800
      6 N7          -1.8930     2.3140    -0.2450 nv         1 EV0      -0.953800
      7 N4          -0.0370     1.0480     0.2020 nd         1 EV0      -0.734300
      8 C2           0.4810    -0.1840     0.4040 cd         1 EV0       0.238400
      9 C8           1.9550    -0.2220     0.6680 c3         1 EV0      -0.034200
     10 C9           2.7720     0.1560    -0.5700 c3         1 EV0      -0.070400
     11 C10          4.2680     0.1480    -0.2900 c3         1 EV0      -0.090100
     12 H1           0.1980    -2.3010     0.5240 ha         1 EV0       0.164000
     13 HN5         -3.1000     0.1360    -0.3240 hn         1 EV0       0.320500
     14 HN7         -2.8570     2.4140    -0.5070 hn         1 EV0       0.453300
     15 HN7A        -1.3150     3.1370    -0.2450 hn         1 EV0       0.453300
     16 H8           2.1850     0.4780     1.4770 hc         1 EV0       0.056700
     17 H8A          2.2450    -1.2170     1.0110 hc         1 EV0       0.056700
     18 H9           2.5440    -0.5440    -1.3780 hc         1 EV0       0.047200
     19 H9A          2.4650     1.1450    -0.9180 hc         1 EV0       0.047200
     20 H10          4.5260     0.8580     0.4980 hc         1 EV0       0.032367
     21 H10A         4.6060    -0.8380     0.0310 hc         1 EV0       0.032367
     22 H10B         4.8380     0.4200    -1.1790 hc         1 EV0       0.032367
@<TRIPOS>BOND
     1     1     2 2   
     2     2     3 1   
     3     2     4 1   
     4     3     8 2   
     5     3    12 1   
     6     4     5 1   
     7     4    13 1   
     8     5     6 1   
     9     5     7 2   
    10     6    14 1   
    11     6    15 1   
    12     7     8 1   
    13     8     9 1   
    14     9    10 1   
    15     9    16 1   
    16     9    17 1   
    17    10    11 1   
    18    10    18 1   
    19    10    19 1   
    20    11    20 1   
    21    11    21 1   
    22    11    22 1   
@<TRIPOS>SUBSTRUCTURE
     1 EV0         1 TEMP              0 ****  ****    0 ROOT
