@<TRIPOS>MOLECULE
EV0
   22    22     1     0     0
SMALL
No Charge or Current Charge


@<TRIPOS>ATOM
      1 O11         -2.3390    -2.2260    -0.2390 o          1 EV0      -0.555000
      2 C3          -1.6700    -1.2220    -0.0650 c          1 EV0       0.582200
      3 C1          -0.2490    -1.2120     0.2110 cc         1 EV0      -0.421200
      4 N5          -2.1830     0.0140    -0.1090 ns         1 EV0      -0.443400
      5 C6          -1.4420     1.1090     0.0900 cc         1 EV0       0.738800
      6 N7          -2.0720     2.2640     0.0160 nv         1 EV0      -1.064200
      7 N4          -0.1610     1.1670     0.3450 nd         1 EV0      -0.734300
      8 C2           0.4930    -0.0670     0.4110 cd         1 EV0       0.238400
      9 C8           1.9740    -0.0750     0.7000 c3         1 EV0      -0.034200
     10 C9           2.8320     0.0690    -0.5770 c3         1 EV0      -0.070400
     11 C10          4.3470     0.0500    -0.2970 c3         1 EV0      -0.090100
     12 H1           0.2120    -2.1910     0.2530 ha         1 EV0       0.214000
     13 HN5         -3.1710     0.0990    -0.2710 hn         1 EV0       0.320500
     14 HN7         -2.8400     2.3120    -0.6420 hn         1 EV0       0.508500
     15 HN7A        -1.4430     3.0560    -0.0090 hn         1 EV0       0.508500
     16 H8           2.2230     0.7380     1.3940 hc         1 EV0       0.056700
     17 H8A          2.2460    -1.0060     1.2120 hc         1 EV0       0.056700
     18 H9           2.5850    -0.7440    -1.2710 hc         1 EV0       0.047200
     19 H9A          2.5730     1.0080    -1.0820 hc         1 EV0       0.047200
     20 H10          4.6300     0.8750     0.3680 hc         1 EV0       0.032367
     21 H10A         4.6430    -0.8940     0.1770 hc         1 EV0       0.032367
     22 H10B         4.9100     0.1550    -1.2320 hc         1 EV0       0.032367
@<TRIPOS>BOND
     1     1     2 2   
     2     2     3 1   
     3     2     4 1   
     4     3     8 2   
     5     3    12 1   
     6     4     5 1   
     7     4    13 1   
     8     5     6 1   
     9     5     7 2   
    10     6    14 1   
    11     6    15 1   
    12     7     8 1   
    13     8     9 1   
    14     9    10 1   
    15     9    16 1   
    16     9    17 1   
    17    10    11 1   
    18    10    18 1   
    19    10    19 1   
    20    11    20 1   
    21    11    21 1   
    22    11    22 1   
@<TRIPOS>SUBSTRUCTURE
     1 EV0         1 TEMP              0 ****  ****    0 ROOT
