@<TRIPOS>MOLECULE
EV1
   46    48     1     0     0
SMALL
abcg2


@<TRIPOS>ATOM
      1 C25          3.8780     1.9720     1.6220 c3         1 EV1       0.144900
      2 O24          3.9930     0.5860     1.3760 os         1 EV1      -0.323100
      3 C16          3.2460     0.0500     0.3930 ca         1 EV1       0.115100
      4 C15          3.4220    -1.3350     0.1840 ca         1 EV1       0.111100
      5 O22          4.3120    -1.9370     0.9970 os         1 EV1      -0.320100
      6 C23          4.5260    -3.3240     0.8330 c3         1 EV1       0.145900
      7 C14          2.6940    -1.9640    -0.8090 ca         1 EV1      -0.172000
      8 C13          1.7930    -1.2400    -1.5930 ca         1 EV1      -0.115000
      9 C17          2.3490     0.7520    -0.3910 ca         1 EV1      -0.161000
     10 C12          1.6100     0.1140    -1.3940 ca         1 EV1      -0.073300
     11 C11          0.6450     0.9170    -2.2350 c3         1 EV1      -0.083400
     12 C10         -0.3450     1.6860    -1.3980 ca         1 EV1       0.380300
     13 N9          -0.1640     2.9840    -1.3180 nb         1 EV1      -0.685000
     14 C8          -0.9970     3.7190    -0.5540 ca         1 EV1       0.325900
     15 C7          -2.0350     3.1870     0.1560 ca         1 EV1      -0.151000
     16 C2          -2.2620     1.7970     0.0900 ca         1 EV1       0.001000
     17 C3          -1.3960     1.0220    -0.7090 ca         1 EV1      -0.072000
     18 C4          -1.6050    -0.3780    -0.7880 ca         1 EV1      -0.163000
     19 C5          -2.6260    -0.9750    -0.1030 ca         1 EV1       0.123100
     20 O20         -2.9040    -2.2850    -0.1120 os         1 EV1      -0.318100
     21 C21         -2.0750    -3.1340    -0.8810 c3         1 EV1       0.142900
     22 C6          -3.5050    -0.1820     0.7080 ca         1 EV1       0.148100
     23 C1          -3.3170     1.1700     0.7940 ca         1 EV1      -0.197000
     24 O18         -4.4670    -0.8730     1.3260 os         1 EV1      -0.316100
     25 C19         -5.3880    -0.1610     2.1310 c3         1 EV1       0.142900
     26 H251         4.1620     2.5670     0.7490 h1         1 EV1       0.040367
     27 H252         2.8650     2.2520     1.9250 h1         1 EV1       0.040367
     28 H253         4.5610     2.2000     2.4370 h1         1 EV1       0.040367
     29 H17          2.2040     1.8140    -0.2360 ha         1 EV1       0.131000
     30 H14          2.8120    -3.0220    -0.9950 ha         1 EV1       0.116000
     31 H231         3.6140    -3.9020     1.0040 h1         1 EV1       0.038700
     32 H232         4.9110    -3.5630    -0.1620 h1         1 EV1       0.038700
     33 H233         5.2680    -3.6130     1.5730 h1         1 EV1       0.038700
     34 H13          1.2370    -1.7600    -2.3640 ha         1 EV1       0.106000
     35 H111         1.1960     1.6430    -2.8370 hc         1 EV1       0.066200
     36 H112         0.1340     0.2550    -2.9370 hc         1 EV1       0.066200
     37 H8          -0.7970     4.7840    -0.5250 h4         1 EV1       0.016100
     38 H7          -2.6740     3.8190     0.7590 ha         1 EV1       0.120000
     39 H1          -3.9670     1.7890     1.3990 ha         1 EV1       0.124000
     40 H4          -0.9450    -0.9760    -1.3970 ha         1 EV1       0.128000
     41 H211        -2.4690    -4.1400    -0.7640 h1         1 EV1       0.042367
     42 H212        -2.0930    -2.8660    -1.9410 h1         1 EV1       0.042367
     43 H213        -1.0400    -3.1180    -0.5290 h1         1 EV1       0.042367
     44 H191        -5.9390     0.5840     1.5520 h1         1 EV1       0.043367
     45 H192        -6.0890    -0.8950     2.5210 h1         1 EV1       0.043367
     46 H193        -4.8930     0.3370     2.9690 h1         1 EV1       0.043367
@<TRIPOS>BOND
     1     1     2 1   
     2     1    26 1   
     3     1    27 1   
     4     1    28 1   
     5     2     3 1   
     6     3     4 ar  
     7     3     9 ar  
     8     4     5 1   
     9     4     7 ar  
    10     5     6 1   
    11     6    31 1   
    12     6    32 1   
    13     6    33 1   
    14     7     8 ar  
    15     7    30 1   
    16     8    10 ar  
    17     8    34 1   
    18     9    10 ar  
    19     9    29 1   
    20    10    11 1   
    21    11    12 1   
    22    11    35 1   
    23    11    36 1   
    24    12    13 ar  
    25    12    17 ar  
    26    13    14 ar  
    27    14    15 ar  
    28    14    37 1   
    29    15    16 ar  
    30    15    38 1   
    31    16    17 ar  
    32    16    23 ar  
    33    17    18 ar  
    34    18    19 ar  
    35    18    40 1   
    36    19    20 1   
    37    19    22 ar  
    38    20    21 1   
    39    21    41 1   
    40    21    42 1   
    41    21    43 1   
    42    22    23 ar  
    43    22    24 1   
    44    23    39 1   
    45    24    25 1   
    46    25    44 1   
    47    25    45 1   
    48    25    46 1   
@<TRIPOS>SUBSTRUCTURE
     1 EV1         1 TEMP              0 ****  ****    0 ROOT
