@<TRIPOS>MOLECULE
EV1
   46    48     1     0     0
SMALL
No Charge or Current Charge


@<TRIPOS>ATOM
      1 C25          3.6390     1.8790     1.9330 c3         1 EV1       0.144900
      2 O24          3.8210     0.5110     1.5260 os         1 EV1      -0.323100
      3 C16          3.1720    -0.0330     0.4290 ca         1 EV1       0.115100
      4 C15          3.4030    -1.3930     0.1110 ca         1 EV1       0.111100
      5 O22          4.2670    -2.1250     0.9090 os         1 EV1      -0.320100
      6 C23          4.5580    -3.5120     0.6630 c3         1 EV1       0.145900
      7 C14          2.7530    -1.9680    -1.0050 ca         1 EV1      -0.172000
      8 C13          1.8810    -1.1960    -1.7900 ca         1 EV1      -0.115000
      9 C17          2.2930     0.7330    -0.3710 ca         1 EV1      -0.161000
     10 C12          1.6410     0.1530    -1.4750 ca         1 EV1      -0.073300
     11 C11          0.6790     0.9830    -2.3260 c3         1 EV1      -0.083400
     12 C10         -0.3640     1.7340    -1.4940 ca         1 EV1       0.380300
     13 N9          -0.2320     3.0850    -1.5040 nb         1 EV1      -0.685000
     14 C8          -1.1060     3.8200    -0.7840 ca         1 EV1       0.325900
     15 C7          -2.1400     3.2520    -0.0280 ca         1 EV1      -0.151000
     16 C2          -2.2880     1.8570    -0.0110 ca         1 EV1       0.001000
     17 C3          -1.3880     1.0710    -0.7590 ca         1 EV1      -0.072000
     18 C4          -1.5340    -0.3360    -0.7490 ca         1 EV1      -0.163000
     19 C5          -2.5600    -0.9470     0.0090 ca         1 EV1       0.123100
     20 O20         -2.7160    -2.3240     0.0460 os         1 EV1      -0.318100
     21 C21         -1.8300    -3.2240    -0.6440 c3         1 EV1       0.142900
     22 C6          -3.4550    -0.1450     0.7560 ca         1 EV1       0.148100
     23 C1          -3.3140     1.2600     0.7400 ca         1 EV1      -0.197000
     24 O18         -4.4520    -0.7700     1.4880 os         1 EV1      -0.316100
     25 C19         -5.4070    -0.0380     2.2770 c3         1 EV1       0.142900
     26 H251         3.9500     2.5680     1.1370 h1         1 EV1       0.040367
     27 H252         2.5870     2.0760     2.1790 h1         1 EV1       0.040367
     28 H253         4.2420     2.0940     2.8240 h1         1 EV1       0.040367
     29 H17          2.1050     1.7790    -0.1460 ha         1 EV1       0.131000
     30 H14          2.9100    -3.0070    -1.2770 ha         1 EV1       0.116000
     31 H231         3.6440    -4.1170     0.7180 h1         1 EV1       0.038700
     32 H232         5.0120    -3.6460    -0.3270 h1         1 EV1       0.038700
     33 H233         5.2620    -3.8910     1.4140 h1         1 EV1       0.038700
     34 H13          1.3890    -1.6540    -2.6460 ha         1 EV1       0.106000
     35 H111         1.2630     1.6890    -2.9290 hc         1 EV1       0.066200
     36 H112         0.1620     0.3490    -3.0550 hc         1 EV1       0.066200
     37 H8          -0.9710     4.9010    -0.8140 h4         1 EV1       0.016100
     38 H7          -2.8120     3.8940     0.5340 ha         1 EV1       0.120000
     39 H1          -3.9880     1.8980     1.3040 ha         1 EV1       0.124000
     40 H4          -0.8550    -0.9490    -1.3280 ha         1 EV1       0.128000
     41 H211        -2.1310    -4.2640    -0.4650 h1         1 EV1       0.042367
     42 H212        -1.8570    -3.0450    -1.7270 h1         1 EV1       0.042367
     43 H213        -0.7980    -3.1030    -0.2910 h1         1 EV1       0.042367
     44 H191        -5.9940     0.6420     1.6480 h1         1 EV1       0.043367
     45 H192        -6.1010    -0.7300     2.7700 h1         1 EV1       0.043367
     46 H193        -4.9020     0.5480     3.0560 h1         1 EV1       0.043367
@<TRIPOS>BOND
     1     1     2 1   
     2     1    26 1   
     3     1    27 1   
     4     1    28 1   
     5     2     3 1   
     6     3     4 ar  
     7     3     9 ar  
     8     4     5 1   
     9     4     7 ar  
    10     5     6 1   
    11     6    31 1   
    12     6    32 1   
    13     6    33 1   
    14     7     8 ar  
    15     7    30 1   
    16     8    10 ar  
    17     8    34 1   
    18     9    10 ar  
    19     9    29 1   
    20    10    11 1   
    21    11    12 1   
    22    11    35 1   
    23    11    36 1   
    24    12    13 ar  
    25    12    17 ar  
    26    13    14 ar  
    27    14    15 ar  
    28    14    37 1   
    29    15    16 ar  
    30    15    38 1   
    31    16    17 ar  
    32    16    23 ar  
    33    17    18 ar  
    34    18    19 ar  
    35    18    40 1   
    36    19    20 1   
    37    19    22 ar  
    38    20    21 1   
    39    21    41 1   
    40    21    42 1   
    41    21    43 1   
    42    22    23 ar  
    43    22    24 1   
    44    23    39 1   
    45    24    25 1   
    46    25    44 1   
    47    25    45 1   
    48    25    46 1   
@<TRIPOS>SUBSTRUCTURE
     1 EV1         1 TEMP              0 ****  ****    0 ROOT
