@<TRIPOS>MOLECULE
EV2
   30    32     1     0     0
SMALL
No Charge or Current Charge


@<TRIPOS>ATOM
      1 N12         -0.6580     2.4170     1.0450 nv         1 EV2      -1.053900
      2 C10         -0.0180     1.2970     0.5950 ca         1 EV2       0.540900
      3 N8           1.3010     1.5210     0.6820 nb         1 EV2      -0.721000
      4 C6           2.0970     0.5120     0.2300 ca         1 EV2       0.236000
      5 C4           3.4960     0.6670     0.2920 ca         1 EV2      -0.078000
      6 C2           4.3600    -0.3420    -0.1650 ca         1 EV2      -0.113000
      7 C9          -0.5930     0.0620     0.0510 ca         1 EV2       0.562900
      8 N7           0.2140    -0.9310    -0.4060 nb         1 EV2      -0.728000
      9 C5           1.5540    -0.7090    -0.3150 ca         1 EV2       0.242000
     10 C3           2.4410    -1.7050    -0.7670 ca         1 EV2      -0.081000
     11 C1           3.8320    -1.5280    -0.6950 ca         1 EV2      -0.111000
     12 N11         -1.9850    -0.2370    -0.0670 nh         1 EV2      -0.796300
     13 C16         -3.0410     0.4170     0.7480 c5         1 EV2       0.220300
     14 C14         -4.1900    -0.6200     0.6670 c5         1 EV2      -0.097400
     15 C13         -4.0450    -1.1180    -0.7920 c5         1 EV2      -0.097400
     16 C15         -2.5190    -1.3730    -0.8680 c5         1 EV2       0.220300
     17 HN12        -0.0540     3.2210     1.1670 hn         1 EV2       0.470000
     18 HN1A        -1.5820     2.6050     0.6720 hn         1 EV2       0.470000
     19 H4           3.9140     1.5840     0.7000 ha         1 EV2       0.126000
     20 H2           5.4370    -0.2020    -0.1090 ha         1 EV2       0.114000
     21 H3           2.0410    -2.6280    -1.1790 ha         1 EV2       0.125000
     22 H1           4.5000    -2.3100    -1.0500 ha         1 EV2       0.114000
     23 H16         -2.7330     0.5880     1.7890 h1         1 EV2       0.053950
     24 H16A        -3.3460     1.3770     0.3060 h1         1 EV2       0.053950
     25 H14         -4.0410    -1.4360     1.3850 hc         1 EV2       0.054700
     26 H14A        -5.1700    -0.1750     0.8720 hc         1 EV2       0.054700
     27 H13         -4.6300    -2.0220    -0.9960 hc         1 EV2       0.054700
     28 H13A        -4.3570    -0.3510    -1.5110 hc         1 EV2       0.054700
     29 H15         -2.1610    -1.3650    -1.9080 h1         1 EV2       0.053950
     30 H15A        -2.2560    -2.3390    -0.4130 h1         1 EV2       0.053950
@<TRIPOS>BOND
     1     1     2 1   
     2     1    17 1   
     3     1    18 1   
     4     2     3 ar  
     5     2     7 ar  
     6     3     4 ar  
     7     4     5 ar  
     8     4     9 ar  
     9     5     6 ar  
    10     5    19 1   
    11     6    11 ar  
    12     6    20 1   
    13     7     8 ar  
    14     7    12 1   
    15     8     9 ar  
    16     9    10 ar  
    17    10    11 ar  
    18    10    21 1   
    19    11    22 1   
    20    12    13 1   
    21    12    16 1   
    22    13    14 1   
    23    13    23 1   
    24    13    24 1   
    25    14    15 1   
    26    14    25 1   
    27    14    26 1   
    28    15    16 1   
    29    15    27 1   
    30    15    28 1   
    31    16    29 1   
    32    16    30 1   
@<TRIPOS>SUBSTRUCTURE
     1 EV2         1 TEMP              0 ****  ****    0 ROOT
