@<TRIPOS>MOLECULE
EV2
   30    32     1     0     0
SMALL
bcc


@<TRIPOS>ATOM
      1 N12         -0.8310     2.4070     0.8210 nv         1 EV2      -0.943500
      2 C10         -0.0330     1.3560     0.4850 ca         1 EV2       0.540900
      3 N8           1.2450     1.4610     0.6760 nb         1 EV2      -0.721000
      4 C6           2.0580     0.4480     0.2690 ca         1 EV2       0.301300
      5 C4           3.4460     0.5320     0.4670 ca         1 EV2      -0.161300
      6 C2           4.2740    -0.4630    -0.0020 ca         1 EV2      -0.131000
      7 C9          -0.6130     0.1320    -0.0800 ca         1 EV2       0.562900
      8 N7           0.1720    -0.7930    -0.5510 nb         1 EV2      -0.728000
      9 C5           1.5180    -0.6650    -0.4020 ca         1 EV2       0.307300
     10 C3           2.3790    -1.6650    -0.8840 ca         1 EV2      -0.164300
     11 C1           3.7370    -1.5650    -0.6850 ca         1 EV2      -0.129000
     12 N11         -1.9570    -0.0370    -0.1910 nh         1 EV2      -0.796300
     13 C16         -2.9520     0.4350     0.7840 c5         1 EV2       0.220300
     14 C14         -4.0250    -0.6480     0.7600 c5         1 EV2      -0.097400
     15 C13         -3.9500    -1.1700    -0.6680 c5         1 EV2      -0.097400
     16 C15         -2.4520    -1.2030    -0.9190 c5         1 EV2       0.220300
     17 HN12        -0.3340     3.2650     1.0060 hn         1 EV2       0.414800
     18 HN1A        -1.6750     2.5460     0.2920 hn         1 EV2       0.414800
     19 H4           3.8480     1.3940     0.9850 ha         1 EV2       0.144000
     20 H2           5.3430    -0.3950     0.1520 ha         1 EV2       0.132000
     21 H3           1.9510    -2.5160    -1.3990 ha         1 EV2       0.143000
     22 H1           4.3950    -2.3420    -1.0540 ha         1 EV2       0.132000
     23 H16         -2.5180     0.5650     1.7750 h1         1 EV2       0.053950
     24 H16A        -3.3870     1.3910     0.4800 h1         1 EV2       0.053950
     25 H14         -3.7780    -1.4440     1.4660 hc         1 EV2       0.054700
     26 H14A        -5.0040    -0.2530     1.0320 hc         1 EV2       0.054700
     27 H13         -4.4060    -2.1520    -0.7950 hc         1 EV2       0.054700
     28 H13A        -4.4440    -0.4800    -1.3560 hc         1 EV2       0.054700
     29 H15         -2.1860    -1.1410    -1.9760 h1         1 EV2       0.053950
     30 H15A        -2.0110    -2.1250    -0.5270 h1         1 EV2       0.053950
@<TRIPOS>BOND
     1     1     2 1   
     2     1    17 1   
     3     1    18 1   
     4     2     3 ar  
     5     2     7 ar  
     6     3     4 ar  
     7     4     5 ar  
     8     4     9 ar  
     9     5     6 ar  
    10     5    19 1   
    11     6    11 ar  
    12     6    20 1   
    13     7     8 ar  
    14     7    12 1   
    15     8     9 ar  
    16     9    10 ar  
    17    10    11 ar  
    18    10    21 1   
    19    11    22 1   
    20    12    13 1   
    21    12    16 1   
    22    13    14 1   
    23    13    23 1   
    24    13    24 1   
    25    14    15 1   
    26    14    25 1   
    27    14    26 1   
    28    15    16 1   
    29    15    27 1   
    30    15    28 1   
    31    16    29 1   
    32    16    30 1   
@<TRIPOS>SUBSTRUCTURE
     1 EV2         1 TEMP              0 ****  ****    0 ROOT
