@<TRIPOS>MOLECULE
EV3
   27    28     1     0     0
SMALL
bcc


@<TRIPOS>ATOM
      1 C1          -2.8230    -0.4200    -0.0450 ca         1 EV3       0.016400
      2 C2          -2.0000    -1.4410     0.4260 ca         1 EV3      -0.122000
      3 C3          -2.3580     0.8560    -0.3200 ca         1 EV3      -0.078000
      4 C4          -0.6470    -1.2020     0.6410 ca         1 EV3      -0.118000
      5 C5          -1.0050     1.0990    -0.1080 ca         1 EV3       0.112400
      6 C6          -0.1760     0.0690     0.3710 ca         1 EV3      -0.086200
      7 N7          -0.2790     2.2440    -0.3030 nc         1 EV3      -0.637100
      8 C8           0.9450     1.9270     0.0470 cd         1 EV3       0.639700
      9 N9           1.0730     0.6380     0.4800 na         1 EV3      -0.179300
     10 N10          1.9910     2.7870     0.0570 nv         1 EV3      -0.899800
     11 C11          2.2890    -0.0320     0.8800 c3         1 EV3       0.048300
     12 C12          2.9990    -0.7020    -0.2900 c3         1 EV3      -0.110400
     13 C13          4.3050    -1.3320     0.1530 c3         1 EV3       0.143400
     14 O14          4.9140    -1.9390    -0.9650 oh         1 EV3      -0.593800
     15 CL15        -4.5100    -0.7650    -0.3030 cl         1 EV3      -0.121400
     16 H2          -2.4100    -2.4220     0.6240 ha         1 EV3       0.146000
     17 H3          -3.0160     1.6330    -0.6860 ha         1 EV3       0.161000
     18 H4          -0.0060    -1.9950     1.0040 ha         1 EV3       0.137000
     19 HN10         1.8390     3.6430    -0.4530 hn         1 EV3       0.421800
     20 HN1A         2.9200     2.4170    -0.0640 hn         1 EV3       0.421800
     21 H11          2.9410     0.6960     1.3680 h1         1 EV3       0.061200
     22 H11A         2.0350    -0.7640     1.6480 h1         1 EV3       0.061200
     23 H12          2.3470    -1.4660    -0.7230 hc         1 EV3       0.065700
     24 H12A         3.1940     0.0380    -1.0710 hc         1 EV3       0.065700
     25 H13          4.9490    -0.5580     0.5920 h1         1 EV3       0.017200
     26 H13A         4.1050    -2.0630     0.9480 h1         1 EV3       0.017200
     27 HO14         5.7500    -2.3190    -0.6810 ho         1 EV3       0.409000
@<TRIPOS>BOND
     1     1     2 ar  
     2     1     3 ar  
     3     1    15 1   
     4     2     4 ar  
     5     2    16 1   
     6     3     5 ar  
     7     3    17 1   
     8     4     6 ar  
     9     4    18 1   
    10     5     6 ar  
    11     5     7 1   
    12     6     9 1   
    13     7     8 2   
    14     8     9 1   
    15     8    10 1   
    16     9    11 1   
    17    10    19 1   
    18    10    20 1   
    19    11    12 1   
    20    11    21 1   
    21    11    22 1   
    22    12    13 1   
    23    12    23 1   
    24    12    24 1   
    25    13    14 1   
    26    13    25 1   
    27    13    26 1   
    28    14    27 1   
@<TRIPOS>SUBSTRUCTURE
     1 EV3         1 TEMP              0 ****  ****    0 ROOT
