@<TRIPOS>MOLECULE
EV3
   27    28     1     0     0
SMALL
No Charge or Current Charge


@<TRIPOS>ATOM
      1 C1          -2.8200    -0.4630    -0.0410 ca         1 EV3       0.108000
      2 C2          -1.9180    -1.4730     0.3640 ca         1 EV3      -0.104000
      3 C3          -2.3710     0.8550    -0.2630 ca         1 EV3      -0.060000
      4 C4          -0.5540    -1.1700     0.5520 ca         1 EV3      -0.100000
      5 C5          -1.0110     1.1400    -0.0720 ca         1 EV3       0.112400
      6 C6          -0.1420     0.1520     0.3240 ca         1 EV3      -0.086200
      7 N7          -0.3730     2.3630    -0.2380 nc         1 EV3      -0.637100
      8 C8           0.8770     2.0420     0.0750 cd         1 EV3       0.639700
      9 N9           1.1060     0.7090     0.4270 na         1 EV3      -0.208600
     10 N10          1.8460     2.9670     0.0300 nv         1 EV3      -1.010200
     11 C11          2.3300     0.0180     0.8680 c3         1 EV3       0.077600
     12 C12          3.0310    -0.7410    -0.2760 c3         1 EV3      -0.110400
     13 C13          4.3030    -1.4720     0.1890 c3         1 EV3       0.166600
     14 O14          4.8990    -2.1480    -0.9210 oh         1 EV3      -0.656000
     15 Cl15        -4.5200    -0.8560    -0.2730 cl         1 EV3      -0.213000
     16 H2          -2.2770    -2.4850     0.5300 ha         1 EV3       0.128000
     17 H3          -3.0610     1.6320    -0.5760 ha         1 EV3       0.143000
     18 H4           0.1490    -1.9400     0.8610 ha         1 EV3       0.119000
     19 HN10         1.6090     3.8240    -0.4570 hn         1 EV3       0.477000
     20 HN1A         2.8000     2.6440    -0.0680 hn         1 EV3       0.477000
     21 H11          3.0200     0.7550     1.2970 h1         1 EV3       0.061200
     22 H11A         2.0660    -0.6870     1.6670 h1         1 EV3       0.061200
     23 H12          2.3340    -1.4700    -0.7070 hc         1 EV3       0.065700
     24 H12A         3.2910    -0.0340    -1.0730 hc         1 EV3       0.065700
     25 H13          5.0070    -0.7430     0.6130 h1         1 EV3       0.017200
     26 H13A         4.0410    -2.1910     0.9770 h1         1 EV3       0.017200
     27 HO14         5.7030    -2.6010    -0.5810 ho         1 EV3       0.448000
@<TRIPOS>BOND
     1     1     2 ar  
     2     1     3 ar  
     3     1    15 1   
     4     2     4 ar  
     5     2    16 1   
     6     3     5 ar  
     7     3    17 1   
     8     4     6 ar  
     9     4    18 1   
    10     5     6 ar  
    11     5     7 1   
    12     6     9 1   
    13     7     8 2   
    14     8     9 1   
    15     8    10 1   
    16     9    11 1   
    17    10    19 1   
    18    10    20 1   
    19    11    12 1   
    20    11    21 1   
    21    11    22 1   
    22    12    13 1   
    23    12    23 1   
    24    12    24 1   
    25    13    14 1   
    26    13    25 1   
    27    13    26 1   
    28    14    27 1   
@<TRIPOS>SUBSTRUCTURE
     1 EV3         1 TEMP              0 ****  ****    0 ROOT
