@<TRIPOS>MOLECULE
EV4
   49    51     1     0     0
SMALL
No Charge or Current Charge


@<TRIPOS>ATOM
      1 C1           3.1450     0.8890     0.8480 ca         1 EV4      -0.101000
      2 C2           3.2780    -0.4240     0.3720 ca         1 EV4      -0.081200
      3 C3           4.3990    -0.8660    -0.2860 ca         1 EV4       0.108400
      4 C4           5.4800    -0.0030    -0.5110 ca         1 EV4      -0.058000
      5 C5           5.3840     1.3250    -0.0460 ca         1 EV4       0.103000
      6 C6           4.2240     1.7720     0.6300 ca         1 EV4      -0.102000
      7 Cl7          6.7190     2.4400    -0.3090 cl         1 EV4      -0.208000
      8 N8           2.4240    -1.4870     0.4270 na         1 EV4      -0.204600
      9 C9           3.0790    -2.5340    -0.2110 cc         1 EV4       0.629700
     10 N10          4.2860    -2.2060    -0.6630 nd         1 EV4      -0.633100
     11 N11          2.5580    -3.7570    -0.3780 nv         1 EV4      -1.001200
     12 C12          1.1000    -1.4480     1.0740 c3         1 EV4       0.076600
     13 C13          0.0010    -0.8800     0.1530 c3         1 EV4      -0.092400
     14 C14         -1.3890    -0.8250     0.8370 c3         1 EV4      -0.158400
     15 C15         -2.5430    -0.2590    -0.0240 c          1 EV4       0.608100
     16 O16         -2.3420     0.0800    -1.1840 o          1 EV4      -0.596100
     17 N17         -3.8330    -0.1360     0.5570 n          1 EV4      -0.412800
     18 C18         -4.0770    -0.5950     1.9490 c3         1 EV4       0.088300
     19 C19         -4.9840     0.4200    -0.2170 c6         1 EV4       0.103700
     20 C20         -6.0830    -0.6470    -0.4770 c6         1 EV4      -0.085400
     21 C21         -7.2390    -0.0610    -1.3270 c6         1 EV4      -0.073400
     22 C22         -7.8350     1.2070    -0.6650 c6         1 EV4      -0.076400
     23 C23         -6.7400     2.2720    -0.4050 c6         1 EV4      -0.073400
     24 C24         -5.5850     1.6900     0.4480 c6         1 EV4      -0.085400
     25 H1           2.2470     1.2220     1.3650 ha         1 EV4       0.118000
     26 H4           6.3680    -0.3490    -1.0320 ha         1 EV4       0.142000
     27 H6           4.1640     2.7990     0.9820 ha         1 EV4       0.127000
     28 HN11         1.5510    -3.8410    -0.3240 hn         1 EV4       0.472000
     29 HN1A         3.0260    -4.3510    -1.0520 hn         1 EV4       0.472000
     30 H12          0.8270    -2.4630     1.3880 h1         1 EV4       0.060700
     31 H12A         1.1700    -0.8350     1.9820 h1         1 EV4       0.060700
     32 H13          0.2870     0.1300    -0.1670 hc         1 EV4       0.066200
     33 H13A        -0.0630    -1.4960    -0.7530 hc         1 EV4       0.066200
     34 H14         -1.6910    -1.8130     1.2000 hc         1 EV4       0.058200
     35 H14A        -1.3490    -0.2530     1.7710 hc         1 EV4       0.058200
     36 H18         -3.4750    -0.0020     2.6480 h1         1 EV4       0.037367
     37 H18A        -5.1330    -0.4830     2.2220 h1         1 EV4       0.037367
     38 H18B        -3.8120    -1.6550     2.0460 h1         1 EV4       0.037367
     39 H19         -4.6250     0.7380    -1.2070 h1         1 EV4       0.087700
     40 H20         -5.6460    -1.5110    -0.9960 hc         1 EV4       0.042950
     41 H20A        -6.4870    -1.0240     0.4720 hc         1 EV4       0.042950
     42 H21         -6.8720     0.1840    -2.3330 hc         1 EV4       0.043450
     43 H21A        -8.0250    -0.8180    -1.4580 hc         1 EV4       0.043450
     44 H22         -8.6190     1.6290    -1.3080 hc         1 EV4       0.040200
     45 H22A        -8.3200     0.9360     0.2830 hc         1 EV4       0.040200
     46 H23         -6.3460     2.6390    -1.3620 hc         1 EV4       0.043450
     47 H23A        -7.1790     3.1400     0.1050 hc         1 EV4       0.043450
     48 H24         -5.9610     1.4610     1.4540 hc         1 EV4       0.042950
     49 H24A        -4.8010     2.4500     0.5730 hc         1 EV4       0.042950
@<TRIPOS>BOND
     1     1     2 ar  
     2     1     6 ar  
     3     1    25 1   
     4     2     3 ar  
     5     2     8 1   
     6     3     4 ar  
     7     3    10 1   
     8     4     5 ar  
     9     4    26 1   
    10     5     6 ar  
    11     5     7 1   
    12     6    27 1   
    13     8     9 1   
    14     8    12 1   
    15     9    10 2   
    16     9    11 1   
    17    11    28 1   
    18    11    29 1   
    19    12    13 1   
    20    12    30 1   
    21    12    31 1   
    22    13    14 1   
    23    13    32 1   
    24    13    33 1   
    25    14    15 1   
    26    14    34 1   
    27    14    35 1   
    28    15    16 2   
    29    15    17 1   
    30    17    18 1   
    31    17    19 1   
    32    18    36 1   
    33    18    37 1   
    34    18    38 1   
    35    19    20 1   
    36    19    24 1   
    37    19    39 1   
    38    20    21 1   
    39    20    40 1   
    40    20    41 1   
    41    21    22 1   
    42    21    42 1   
    43    21    43 1   
    44    22    23 1   
    45    22    44 1   
    46    22    45 1   
    47    23    24 1   
    48    23    46 1   
    49    23    47 1   
    50    24    48 1   
    51    24    49 1   
@<TRIPOS>SUBSTRUCTURE
     1 EV4         1 TEMP              0 ****  ****    0 ROOT
