@<TRIPOS>MOLECULE
EV4
   49    51     1     0     0
SMALL
bcc


@<TRIPOS>ATOM
      1 C1           3.1970     0.9260     1.0390 ca         1 EV4      -0.119000
      2 C2           3.2050    -0.3170     0.4330 ca         1 EV4      -0.081200
      3 C3           4.2900    -0.7740    -0.3370 ca         1 EV4       0.108400
      4 C4           5.4060     0.0350    -0.5100 ca         1 EV4      -0.076000
      5 C5           5.3950     1.2790     0.1020 ca         1 EV4       0.011400
      6 C6           4.3180     1.7280     0.8670 ca         1 EV4      -0.120000
      7 CL7          6.7680     2.3190    -0.0900 cl         1 EV4      -0.116400
      8 N8           2.2920    -1.3500     0.4060 na         1 EV4      -0.175300
      9 C9           2.8470    -2.3240    -0.3770 cc         1 EV4       0.629700
     10 N10          4.0320    -2.0250    -0.8330 nd         1 EV4      -0.633100
     11 N11          2.2150    -3.5140    -0.5770 nv         1 EV4      -0.890800
     12 C12          0.9990    -1.3790     1.0460 c3         1 EV4       0.047300
     13 C13         -0.1260    -0.9230     0.1230 c3         1 EV4      -0.092400
     14 C14         -1.4640    -0.9320     0.8430 c3         1 EV4      -0.158400
     15 C15         -2.6030    -0.4770    -0.0600 c          1 EV4       0.675100
     16 O16         -2.4160    -0.3110    -1.2500 o          1 EV4      -0.596100
     17 N17         -3.8060    -0.2760     0.5390 n          1 EV4      -0.479800
     18 C18         -4.0050    -0.4610     1.9600 c3         1 EV4       0.088300
     19 C19         -4.9150     0.2730    -0.2390 c6         1 EV4       0.103700
     20 C20         -6.0720    -0.7180    -0.3690 c6         1 EV4      -0.085400
     21 C21         -7.2040    -0.1280    -1.2070 c6         1 EV4      -0.073400
     22 C22         -7.6770     1.2090    -0.6470 c6         1 EV4      -0.076400
     23 C23         -6.5180     2.1920    -0.5290 c6         1 EV4      -0.073400
     24 C24         -5.3870     1.6160     0.3190 c6         1 EV4      -0.085400
     25 H1           2.3650     1.2820     1.6330 ha         1 EV4       0.136000
     26 H4           6.2470    -0.2930    -1.1050 ha         1 EV4       0.160000
     27 H6           4.3560     2.7040     1.3280 ha         1 EV4       0.145000
     28 HN11         1.2180    -3.4920    -0.7190 hn         1 EV4       0.416800
     29 HN1A         2.6890    -4.1050    -1.2390 hn         1 EV4       0.416800
     30 H12          0.8200    -2.3920     1.4170 h1         1 EV4       0.060700
     31 H12A         1.0520    -0.7410     1.9300 h1         1 EV4       0.060700
     32 H13          0.0960     0.0790    -0.2490 hc         1 EV4       0.066200
     33 H13A        -0.1740    -1.5660    -0.7580 hc         1 EV4       0.066200
     34 H14         -1.6820    -1.9400     1.2150 hc         1 EV4       0.058200
     35 H14A        -1.4170    -0.2970     1.7330 hc         1 EV4       0.058200
     36 H18         -3.6710     0.3950     2.5540 h1         1 EV4       0.037367
     37 H18A        -5.0630    -0.6080     2.1640 h1         1 EV4       0.037367
     38 H18B        -3.4960    -1.3500     2.3280 h1         1 EV4       0.037367
     39 H19         -4.5190     0.4510    -1.2400 h1         1 EV4       0.087700
     40 H20         -5.7080    -1.6440    -0.8200 hc         1 EV4       0.042950
     41 H20A        -6.4640    -0.9820     0.6190 hc         1 EV4       0.042950
     42 H21         -6.8540     0.0130    -2.2350 hc         1 EV4       0.043450
     43 H21A        -8.0330    -0.8360    -1.2590 hc         1 EV4       0.043450
     44 H22         -8.4640     1.6260    -1.2780 hc         1 EV4       0.040200
     45 H22A        -8.1220     1.0530     0.3420 hc         1 EV4       0.040200
     46 H23         -6.1380     2.4280    -1.5280 hc         1 EV4       0.043450
     47 H23A        -6.8570     3.1360    -0.0990 hc         1 EV4       0.043450
     48 H24         -5.7440     1.5000     1.3490 hc         1 EV4       0.042950
     49 H24A        -4.5460     2.3130     0.3530 hc         1 EV4       0.042950
@<TRIPOS>BOND
     1     1     2 ar  
     2     1     6 ar  
     3     1    25 1   
     4     2     3 ar  
     5     2     8 1   
     6     3     4 ar  
     7     3    10 1   
     8     4     5 ar  
     9     4    26 1   
    10     5     6 ar  
    11     5     7 1   
    12     6    27 1   
    13     8     9 1   
    14     8    12 1   
    15     9    10 2   
    16     9    11 1   
    17    11    28 1   
    18    11    29 1   
    19    12    13 1   
    20    12    30 1   
    21    12    31 1   
    22    13    14 1   
    23    13    32 1   
    24    13    33 1   
    25    14    15 1   
    26    14    34 1   
    27    14    35 1   
    28    15    16 2   
    29    15    17 1   
    30    17    18 1   
    31    17    19 1   
    32    18    36 1   
    33    18    37 1   
    34    18    38 1   
    35    19    20 1   
    36    19    24 1   
    37    19    39 1   
    38    20    21 1   
    39    20    40 1   
    40    20    41 1   
    41    21    22 1   
    42    21    42 1   
    43    21    43 1   
    44    22    23 1   
    45    22    44 1   
    46    22    45 1   
    47    23    24 1   
    48    23    46 1   
    49    23    47 1   
    50    24    48 1   
    51    24    49 1   
@<TRIPOS>SUBSTRUCTURE
     1 EV4         1 TEMP              0 ****  ****    0 ROOT
