@<TRIPOS>MOLECULE
EV5
   52    54     1     0     0
SMALL
bcc


@<TRIPOS>ATOM
      1 C1           1.2570     0.2070    -0.0350 ca         1 EV5      -0.077200
      2 C2           1.9940    -0.5720     0.8370 ca         1 EV5      -0.102000
      3 C3           2.3110    -1.8630     0.4340 ca         1 EV5      -0.122000
      4 C4           1.8860    -2.3330    -0.8070 ca         1 EV5       0.017400
      5 C5           1.1470    -1.5610    -1.6880 ca         1 EV5      -0.083000
      6 C6           0.8330    -0.2670    -1.2870 ca         1 EV5       0.105400
      7 N7           0.1300     0.7040    -1.9490 nc         1 EV5      -0.642100
      8 C8           0.1140     1.7270    -1.1300 cd         1 EV5       0.626700
      9 N9           0.7790     1.5010     0.0450 na         1 EV5      -0.178300
     10 N10         -0.5630     2.8760    -1.3800 nv         1 EV5      -0.899800
     11 CL11         2.3040    -3.9600    -1.2660 cl         1 EV5      -0.124400
     12 C12          0.9310     2.3830     1.1980 c3         1 EV5       0.071000
     13 C13          1.7510     3.6360     0.8920 c3         1 EV5      -0.088400
     14 C14          3.1020     3.3290     0.2640 c3         1 EV5      -0.092100
     15 C15         -0.4220     2.6920     1.8370 c3         1 EV5      -0.178400
     16 C16         -1.1240     1.4010     2.2120 c          1 EV5       0.672100
     17 N17         -2.3570     1.2490     1.7140 ns         1 EV5      -0.559900
     18 O18         -0.5660     0.5620     2.9070 o          1 EV5      -0.610100
     19 C19         -3.1510     0.0490     1.8630 c3         1 EV5       0.101000
     20 C20         -3.9740    -0.2450     0.6140 c6         1 EV5      -0.079700
     21 C21         -4.8040    -1.5100     0.8300 c6         1 EV5      -0.071400
     22 C22         -5.6350    -1.8610    -0.4000 c6         1 EV5      -0.072400
     23 C23         -4.7570    -1.9970    -1.6400 c6         1 EV5      -0.075400
     24 C24         -3.9320    -0.7350    -1.8650 c6         1 EV5      -0.072400
     25 C25         -3.1040    -0.3790    -0.6350 c6         1 EV5      -0.071400
     26 H2           2.3200    -0.2140     1.8050 ha         1 EV5       0.145000
     27 H3           2.8860    -2.5030     1.0890 ha         1 EV5       0.147000
     28 H5           0.8230    -1.9440    -2.6460 ha         1 EV5       0.159000
     29 HN10        -0.8670     2.9710    -2.3360 hn         1 EV5       0.415800
     30 HN1A        -0.2010     3.7360    -1.0030 hn         1 EV5       0.415800
     31 H12          1.5040     1.8020     1.9220 h1         1 EV5       0.089700
     32 H13          1.1960     4.3380     0.2640 hc         1 EV5       0.043700
     33 H13A         1.8960     4.1530     1.8430 hc         1 EV5       0.043700
     34 H14          3.6750     2.6350     0.8800 hc         1 EV5       0.043033
     35 H14A         3.0010     2.8890    -0.7290 hc         1 EV5       0.043033
     36 H14B         3.6890     4.2410     0.1560 hc         1 EV5       0.043033
     37 H15         -0.2450     3.2690     2.7480 hc         1 EV5       0.068200
     38 H15A        -1.0350     3.3140     1.1820 hc         1 EV5       0.068200
     39 HN17        -2.7560     2.0060     1.1830 hn         1 EV5       0.313500
     40 H19         -2.4730    -0.7840     2.0580 h1         1 EV5       0.055700
     41 H19A        -3.8150     0.1330     2.7300 h1         1 EV5       0.055700
     42 H20         -4.6740     0.5890     0.4560 hc         1 EV5       0.040700
     43 H21         -4.1300    -2.3440     1.0580 hc         1 EV5       0.045200
     44 H21A        -5.4540    -1.3880     1.7010 hc         1 EV5       0.045200
     45 H22         -6.1900    -2.7860    -0.2240 hc         1 EV5       0.038450
     46 H22A        -6.3820    -1.0780    -0.5680 hc         1 EV5       0.038450
     47 H23         -4.0830    -2.8510    -1.5130 hc         1 EV5       0.039700
     48 H23A        -5.3720    -2.2110    -2.5180 hc         1 EV5       0.039700
     49 H24         -3.2730    -0.8570    -2.7280 hc         1 EV5       0.038450
     50 H24A        -4.6030     0.0980    -2.1020 hc         1 EV5       0.038450
     51 H25         -2.5570     0.5470    -0.8210 hc         1 EV5       0.045200
     52 H25A        -2.3460    -1.1540    -0.4660 hc         1 EV5       0.045200
@<TRIPOS>BOND
     1     1     2 ar  
     2     1     6 ar  
     3     1     9 1   
     4     2     3 ar  
     5     2    26 1   
     6     3     4 ar  
     7     3    27 1   
     8     4     5 ar  
     9     4    11 1   
    10     5     6 ar  
    11     5    28 1   
    12     6     7 1   
    13     7     8 2   
    14     8     9 1   
    15     8    10 1   
    16     9    12 1   
    17    10    29 1   
    18    10    30 1   
    19    12    13 1   
    20    12    15 1   
    21    12    31 1   
    22    13    14 1   
    23    13    32 1   
    24    13    33 1   
    25    14    34 1   
    26    14    35 1   
    27    14    36 1   
    28    15    16 1   
    29    15    37 1   
    30    15    38 1   
    31    16    17 1   
    32    16    18 2   
    33    17    19 1   
    34    17    39 1   
    35    19    20 1   
    36    19    40 1   
    37    19    41 1   
    38    20    21 1   
    39    20    25 1   
    40    20    42 1   
    41    21    22 1   
    42    21    43 1   
    43    21    44 1   
    44    22    23 1   
    45    22    45 1   
    46    22    46 1   
    47    23    24 1   
    48    23    47 1   
    49    23    48 1   
    50    24    25 1   
    51    24    49 1   
    52    24    50 1   
    53    25    51 1   
    54    25    52 1   
@<TRIPOS>SUBSTRUCTURE
     1 EV5         1 TEMP              0 ****  ****    0 ROOT
