@<TRIPOS>MOLECULE
EV5
   52    54     1     0     0
SMALL
No Charge or Current Charge


@<TRIPOS>ATOM
      1 C1           0.6100     0.5510    -0.6870 ca         1 EV5      -0.077200
      2 C2           1.3250    -0.5660    -0.2200 ca         1 EV5      -0.084000
      3 C3           1.3550    -1.7160    -1.0350 ca         1 EV5      -0.104000
      4 C4           0.6860    -1.7240    -2.2790 ca         1 EV5       0.109000
      5 C5          -0.0150    -0.5850    -2.7210 ca         1 EV5      -0.065000
      6 C6          -0.0410     0.5490    -1.8980 ca         1 EV5       0.105400
      7 N7          -0.6790     1.7530    -2.1530 nc         1 EV5      -0.642100
      8 C8          -0.3770     2.4380    -1.0590 cd         1 EV5       0.626700
      9 N9           0.4050     1.7770    -0.1020 na         1 EV5      -0.207600
     10 N10         -0.8150     3.6970    -0.9260 nv         1 EV5      -1.010200
     11 Cl11         0.7240    -3.1700    -3.2790 cl         1 EV5      -0.216000
     12 C12          0.9150     2.2060     1.2250 c3         1 EV5       0.100300
     13 C13          2.0350     3.2720     1.1070 c3         1 EV5      -0.088400
     14 C14          3.2510     2.8150     0.2710 c3         1 EV5      -0.092100
     15 C15         -0.2160     2.6590     2.1810 c3         1 EV5      -0.178400
     16 C16         -1.2480     1.5510     2.3830 c          1 EV5       0.605100
     17 N17         -2.4280     1.7270     1.6970 ns         1 EV5      -0.492900
     18 O18         -1.0500     0.6020     3.1270 o          1 EV5      -0.610100
     19 C19         -3.5710     0.8090     1.7290 c3         1 EV5       0.101000
     20 C20         -3.5800    -0.2180     0.5580 c6         1 EV5      -0.079700
     21 C21         -4.9410    -0.9670     0.4920 c6         1 EV5      -0.071400
     22 C22         -4.9790    -1.9870    -0.6740 c6         1 EV5      -0.072400
     23 C23         -3.8080    -2.9940    -0.5770 c6         1 EV5      -0.075400
     24 C24         -2.4490    -2.2560    -0.5200 c6         1 EV5      -0.072400
     25 C25         -2.4110    -1.2410     0.6490 c6         1 EV5      -0.071400
     26 H2           1.8390    -0.5610     0.7370 ha         1 EV5       0.127000
     27 H3           1.8920    -2.6010    -0.7040 ha         1 EV5       0.129000
     28 H5          -0.5310    -0.5870    -3.6760 ha         1 EV5       0.141000
     29 HN10        -1.1870     4.1130    -1.7720 hn         1 EV5       0.471000
     30 HN1A        -0.2790     4.3140    -0.3300 hn         1 EV5       0.471000
     31 H12          1.3750     1.3300     1.7000 h1         1 EV5       0.089700
     32 H13          1.6300     4.1940     0.6750 hc         1 EV5       0.043700
     33 H13A         2.3880     3.5280     2.1140 hc         1 EV5       0.043700
     34 H14          3.6780     1.8910     0.6780 hc         1 EV5       0.043033
     35 H14A         2.9660     2.6340    -0.7730 hc         1 EV5       0.043033
     36 H14B         4.0310     3.5860     0.2800 hc         1 EV5       0.043033
     37 H15          0.2300     2.8930     3.1540 hc         1 EV5       0.068200
     38 H15A        -0.6970     3.5540     1.7740 hc         1 EV5       0.068200
     39 HN17        -2.4850     2.5420     1.0970 hn         1 EV5       0.313500
     40 H19         -3.5900     0.2720     2.6860 h1         1 EV5       0.055700
     41 H19A        -4.4860     1.4140     1.6710 h1         1 EV5       0.055700
     42 H20         -3.4640     0.3650    -0.3670 hc         1 EV5       0.040700
     43 H21         -5.1250    -1.4900     1.4410 hc         1 EV5       0.045200
     44 H21A        -5.7610    -0.2460     0.3710 hc         1 EV5       0.045200
     45 H22         -5.9360    -2.5260    -0.6660 hc         1 EV5       0.038450
     46 H22A        -4.9290    -1.4530    -1.6340 hc         1 EV5       0.038450
     47 H23         -3.9290    -3.6190     0.3190 hc         1 EV5       0.039700
     48 H23A        -3.8270    -3.6740    -1.4390 hc         1 EV5       0.039700
     49 H24         -1.6320    -2.9830    -0.4120 hc         1 EV5       0.038450
     50 H24A        -2.2790    -1.7320    -1.4690 hc         1 EV5       0.038450
     51 H25         -1.4480    -0.7180     0.6370 hc         1 EV5       0.045200
     52 H25A        -2.4590    -1.7790     1.6050 hc         1 EV5       0.045200
@<TRIPOS>BOND
     1     1     2 ar  
     2     1     6 ar  
     3     1     9 1   
     4     2     3 ar  
     5     2    26 1   
     6     3     4 ar  
     7     3    27 1   
     8     4     5 ar  
     9     4    11 1   
    10     5     6 ar  
    11     5    28 1   
    12     6     7 1   
    13     7     8 2   
    14     8     9 1   
    15     8    10 1   
    16     9    12 1   
    17    10    29 1   
    18    10    30 1   
    19    12    13 1   
    20    12    15 1   
    21    12    31 1   
    22    13    14 1   
    23    13    32 1   
    24    13    33 1   
    25    14    34 1   
    26    14    35 1   
    27    14    36 1   
    28    15    16 1   
    29    15    37 1   
    30    15    38 1   
    31    16    17 1   
    32    16    18 2   
    33    17    19 1   
    34    17    39 1   
    35    19    20 1   
    36    19    40 1   
    37    19    41 1   
    38    20    21 1   
    39    20    25 1   
    40    20    42 1   
    41    21    22 1   
    42    21    43 1   
    43    21    44 1   
    44    22    23 1   
    45    22    45 1   
    46    22    46 1   
    47    23    24 1   
    48    23    47 1   
    49    23    48 1   
    50    24    25 1   
    51    24    49 1   
    52    24    50 1   
    53    25    51 1   
    54    25    52 1   
@<TRIPOS>SUBSTRUCTURE
     1 EV5         1 TEMP              0 ****  ****    0 ROOT
