@<TRIPOS>MOLECULE
EV6
   57    61     1     0     0
SMALL
No Charge or Current Charge


@<TRIPOS>ATOM
      1 C1           1.5930     0.4870    -0.1810 ca         1 EV6      -0.077200
      2 C2           1.8270    -0.5410     0.7480 ca         1 EV6      -0.090000
      3 C3           1.8490    -1.8680     0.2730 ca         1 EV6      -0.101000
      4 C4           1.6450    -2.1340    -1.0990 ca         1 EV6       0.107000
      5 C5           1.4190    -1.0810    -2.0060 ca         1 EV6      -0.062000
      6 C6           1.3920     0.2330    -1.5160 ca         1 EV6       0.103400
      7 N7           1.1480     1.3890    -2.2380 nc         1 EV6      -0.639100
      8 C8           1.2050     2.3050    -1.2810 cd         1 EV6       0.621700
      9 N9           1.4880     1.8450     0.0150 na         1 EV6      -0.205600
     10 N10          0.9180     3.5790    -1.5770 nv         1 EV6      -1.009200
     11 Cl11         1.6600    -3.7950    -1.6760 cl         1 EV6      -0.213000
     12 C12          1.3440     2.5060     1.3380 c3         1 EV6       0.098300
     13 C13          2.1430     3.8310     1.4720 c3         1 EV6      -0.088400
     14 C14          3.6440     3.6970     1.1320 c3         1 EV6      -0.092100
     15 C15         -0.1460     2.6800     1.7190 c3         1 EV6      -0.179400
     16 C16         -0.7990     1.3140     1.9210 c          1 EV6       0.601100
     17 N17         -1.5260     0.8530     0.8520 ns         1 EV6      -0.488900
     18 O18         -0.6760     0.6770     2.9570 o          1 EV6      -0.611100
     19 C19         -2.1510    -0.4720     0.7550 c6         1 EV6       0.119700
     20 C20         -3.5600    -0.5030     1.4290 c6         1 EV6      -0.073700
     21 C21         -4.1070    -1.9610     1.3890 c6         1 EV6      -0.067150
     22 C22         -4.2380    -2.4330    -0.0890 c6         1 EV6      -0.061700
     23 C23         -5.2230    -1.4920    -0.8430 c6         1 EV6      -0.067400
     24 C24         -4.6850    -0.0310    -0.8080 c6         1 EV6      -0.061700
     25 C25         -4.5500     0.4340     0.6710 c6         1 EV6      -0.067150
     26 C26         -2.2990    -0.9160    -0.7340 c6         1 EV6      -0.073700
     27 C27         -3.2900     0.0190    -1.4940 c6         1 EV6      -0.067150
     28 C28         -2.8420    -2.3750    -0.7750 c6         1 EV6      -0.067150
     29 H2           1.9800    -0.3360     1.8050 ha         1 EV6       0.125000
     30 H3           2.0200    -2.6890     0.9640 ha         1 EV6       0.130000
     31 H5           1.2540    -1.2810    -3.0600 ha         1 EV6       0.142000
     32 HN10         0.9130     3.8090    -2.5630 hn         1 EV6       0.470000
     33 HN1A         1.2550     4.2940    -0.9470 hn         1 EV6       0.470000
     34 H12          1.7850     1.8340     2.0850 h1         1 EV6       0.086700
     35 H13          1.6960     4.6130     0.8490 hc         1 EV6       0.044200
     36 H13A         2.0590     4.1850     2.5070 hc         1 EV6       0.044200
     37 H14          4.1160     2.9280     1.7560 hc         1 EV6       0.043033
     38 H14A         3.7900     3.4260     0.0800 hc         1 EV6       0.043033
     39 H14B         4.1610     4.6470     1.3120 hc         1 EV6       0.043033
     40 H15         -0.2080     3.2360     2.6620 hc         1 EV6       0.069700
     41 H15A        -0.6510     3.2320     0.9190 hc         1 EV6       0.069700
     42 HN17        -1.5580     1.4530     0.0380 hn         1 EV6       0.321500
     43 H19         -1.4920    -1.1890     1.2690 h1         1 EV6       0.076700
     44 H20         -3.4740    -0.1780     2.4750 hc         1 EV6       0.067700
     45 H21         -3.4360    -2.6330     1.9430 hc         1 EV6       0.040950
     46 H21A        -5.0820    -2.0140     1.8920 hc         1 EV6       0.040950
     47 H22         -4.6200    -3.4630    -0.1150 hc         1 EV6       0.048200
     48 H23         -5.3460    -1.8260    -1.8820 hc         1 EV6       0.039200
     49 H23A        -6.2200    -1.5390    -0.3830 hc         1 EV6       0.039200
     50 H24         -5.3820     0.6310    -1.3410 hc         1 EV6       0.048200
     51 H25         -5.5330     0.4190     1.1620 hc         1 EV6       0.040950
     52 H25A        -4.2040     1.4760     0.7120 hc         1 EV6       0.040950
     53 H26         -1.3170    -0.8850    -1.2240 hc         1 EV6       0.067700
     54 H27         -3.3740    -0.2960    -2.5430 hc         1 EV6       0.040950
     55 H27A        -2.9130     1.0510    -1.5170 hc         1 EV6       0.040950
     56 H28         -2.1410    -3.0540    -0.2710 hc         1 EV6       0.040950
     57 H28A        -2.9150    -2.7230    -1.8150 hc         1 EV6       0.040950
@<TRIPOS>BOND
     1     1     2 ar  
     2     1     6 ar  
     3     1     9 1   
     4     2     3 ar  
     5     2    29 1   
     6     3     4 ar  
     7     3    30 1   
     8     4     5 ar  
     9     4    11 1   
    10     5     6 ar  
    11     5    31 1   
    12     6     7 1   
    13     7     8 2   
    14     8     9 1   
    15     8    10 1   
    16     9    12 1   
    17    10    32 1   
    18    10    33 1   
    19    12    13 1   
    20    12    15 1   
    21    12    34 1   
    22    13    14 1   
    23    13    35 1   
    24    13    36 1   
    25    14    37 1   
    26    14    38 1   
    27    14    39 1   
    28    15    16 1   
    29    15    40 1   
    30    15    41 1   
    31    16    17 1   
    32    16    18 2   
    33    17    19 1   
    34    17    42 1   
    35    19    20 1   
    36    19    26 1   
    37    19    43 1   
    38    20    21 1   
    39    20    25 1   
    40    20    44 1   
    41    21    22 1   
    42    21    45 1   
    43    21    46 1   
    44    22    23 1   
    45    22    28 1   
    46    22    47 1   
    47    23    24 1   
    48    23    48 1   
    49    23    49 1   
    50    24    25 1   
    51    24    27 1   
    52    24    50 1   
    53    25    51 1   
    54    25    52 1   
    55    26    27 1   
    56    26    28 1   
    57    26    53 1   
    58    27    54 1   
    59    27    55 1   
    60    28    56 1   
    61    28    57 1   
@<TRIPOS>SUBSTRUCTURE
     1 EV6         1 TEMP              0 ****  ****    0 ROOT
