@<TRIPOS>MOLECULE
EV6
   57    61     1     0     0
SMALL
abcg2


@<TRIPOS>ATOM
      1 C1           1.9550     0.2850     0.0340 ca         1 EV6      -0.077200
      2 C2           2.6850    -0.4830     0.9220 ca         1 EV6      -0.090000
      3 C3           3.1440    -1.7160     0.4780 ca         1 EV6      -0.101000
      4 C4           2.8680    -2.1400    -0.8210 ca         1 EV6       0.107000
      5 C5           2.1390    -1.3780    -1.7190 ca         1 EV6      -0.062000
      6 C6           1.6780    -0.1440    -1.2740 ca         1 EV6       0.103400
      7 N7           0.9450     0.8030    -1.9390 nc         1 EV6      -0.639100
      8 C8           0.7720     1.7670    -1.0700 cd         1 EV6       0.621700
      9 N9           1.3600     1.5270     0.1420 na         1 EV6      -0.205600
     10 N10          0.0050     2.8650    -1.3050 nv         1 EV6      -1.009200
     11 CL11         3.4640    -3.6940    -1.3320 cl         1 EV6      -0.213000
     12 C12          1.3020     2.3250     1.3630 c3         1 EV6       0.098300
     13 C13          2.0730     3.6380     1.2490 c3         1 EV6      -0.088400
     14 C14          3.5150     3.4490     0.8040 c3         1 EV6      -0.092100
     15 C15         -0.1440     2.5260     1.8300 c3         1 EV6      -0.179400
     16 C16         -0.8520     1.1880     1.8880 c          1 EV6       0.601100
     17 N17         -1.7030     0.9510     0.8800 ns         1 EV6      -0.488900
     18 O18         -0.6010     0.3760     2.7700 o          1 EV6      -0.611100
     19 C19         -2.3540    -0.3250     0.6580 c6         1 EV6       0.119700
     20 C20         -3.7130    -0.4230     1.3660 c6         1 EV6      -0.073700
     21 C21         -4.2520    -1.8440     1.1860 c6         1 EV6      -0.067150
     22 C22         -4.4340    -2.1410    -0.3040 c6         1 EV6      -0.061700
     23 C23         -5.4240    -1.1410    -0.9040 c6         1 EV6      -0.067400
     24 C24         -4.8890     0.2830    -0.7300 c6         1 EV6      -0.061700
     25 C25         -4.6960     0.5810     0.7590 c6         1 EV6      -0.067150
     26 C26         -2.5420    -0.5860    -0.8420 c6         1 EV6      -0.073700
     27 C27         -3.5430     0.4020    -1.4510 c6         1 EV6      -0.067150
     28 C28         -3.0850    -2.0080    -1.0160 c6         1 EV6      -0.067150
     29 H2           2.9030    -0.1610     1.9320 ha         1 EV6       0.125000
     30 H3           3.7180    -2.3460     1.1430 ha         1 EV6       0.130000
     31 H5           1.9350    -1.7240    -2.7230 ha         1 EV6       0.142000
     32 HN10        -0.2460     2.9810    -2.2750 hn         1 EV6       0.470000
     33 HN1A         0.2800     3.7350    -0.8780 hn         1 EV6       0.470000
     34 H12          1.8030     1.7210     2.1210 h1         1 EV6       0.086700
     35 H13          1.5630     4.3360     0.5790 hc         1 EV6       0.044200
     36 H13A         2.0480     4.1090     2.2340 hc         1 EV6       0.044200
     37 H14          4.0490     2.7670     1.4670 hc         1 EV6       0.043033
     38 H14A         3.5770     3.0480    -0.2090 hc         1 EV6       0.043033
     39 H14B         4.0450     4.4000     0.8110 hc         1 EV6       0.043033
     40 H15         -0.1160     2.9580     2.8320 hc         1 EV6       0.069700
     41 H15A        -0.6660     3.2380     1.1900 hc         1 EV6       0.069700
     42 HN17        -1.8270     1.6750     0.1900 hn         1 EV6       0.321500
     43 H19         -1.6920    -1.0950     1.0650 h1         1 EV6       0.076700
     44 H20         -3.5740    -0.2120     2.4310 hc         1 EV6       0.067700
     45 H21         -3.5630    -2.5670     1.6360 hc         1 EV6       0.040950
     46 H21A        -5.2040    -1.9500     1.7150 hc         1 EV6       0.040950
     47 H22         -4.8140    -3.1590    -0.4330 hc         1 EV6       0.048200
     48 H23         -5.5740    -1.3560    -1.9680 hc         1 EV6       0.039200
     49 H23A        -6.4020    -1.2420    -0.4220 hc         1 EV6       0.039200
     50 H24         -5.5980     0.9970    -1.1590 hc         1 EV6       0.048200
     51 H25         -5.6540     0.5200     1.2860 hc         1 EV6       0.040950
     52 H25A        -4.3350     1.6040     0.9020 hc         1 EV6       0.040950
     53 H26         -1.5730    -0.4950    -1.3440 hc         1 EV6       0.067700
     54 H27         -3.6650     0.1780    -2.5150 hc         1 EV6       0.040950
     55 H27A        -3.1740     1.4340    -1.4080 hc         1 EV6       0.040950
     56 H28         -2.3700    -2.7360    -0.6180 hc         1 EV6       0.040950
     57 H28A        -3.2000    -2.2250    -2.0820 hc         1 EV6       0.040950
@<TRIPOS>BOND
     1     1     2 ar  
     2     1     6 ar  
     3     1     9 1   
     4     2     3 ar  
     5     2    29 1   
     6     3     4 ar  
     7     3    30 1   
     8     4     5 ar  
     9     4    11 1   
    10     5     6 ar  
    11     5    31 1   
    12     6     7 1   
    13     7     8 2   
    14     8     9 1   
    15     8    10 1   
    16     9    12 1   
    17    10    32 1   
    18    10    33 1   
    19    12    13 1   
    20    12    15 1   
    21    12    34 1   
    22    13    14 1   
    23    13    35 1   
    24    13    36 1   
    25    14    37 1   
    26    14    38 1   
    27    14    39 1   
    28    15    16 1   
    29    15    40 1   
    30    15    41 1   
    31    16    17 1   
    32    16    18 2   
    33    17    19 1   
    34    17    42 1   
    35    19    20 1   
    36    19    26 1   
    37    19    43 1   
    38    20    21 1   
    39    20    25 1   
    40    20    44 1   
    41    21    22 1   
    42    21    45 1   
    43    21    46 1   
    44    22    23 1   
    45    22    28 1   
    46    22    47 1   
    47    23    24 1   
    48    23    48 1   
    49    23    49 1   
    50    24    25 1   
    51    24    27 1   
    52    24    50 1   
    53    25    51 1   
    54    25    52 1   
    55    26    27 1   
    56    26    28 1   
    57    26    53 1   
    58    27    54 1   
    59    27    55 1   
    60    28    56 1   
    61    28    57 1   
@<TRIPOS>SUBSTRUCTURE
     1 EV6         1 TEMP              0 ****  ****    0 ROOT
