@<TRIPOS>MOLECULE
EV7
   38    41     1     0     0
SMALL
No Charge or Current Charge


@<TRIPOS>ATOM
      1 C13         -1.2470    -1.6630     1.3980 ca         1 EV7      -0.149000
      2 C17          1.8580    -0.9170    -0.4460 ca         1 EV7      -0.132000
      3 C20          5.4270    -0.5160    -1.4370 ca         1 EV7      -0.086000
      4 C21          6.6390    -0.0710    -0.8810 ca         1 EV7      -0.138000
      5 C22          6.6780     0.3970     0.4430 ca         1 EV7      -0.122000
      6 C24          4.2870    -0.0230     0.6640 ca         1 EV7      -0.001000
      7 C02         -0.3040     1.8210     0.1220 c          1 EV7       0.713600
      8 C04         -1.0590     0.5440     0.3800 ca         1 EV7      -0.148600
      9 C05         -2.3530     0.3810    -0.1630 ca         1 EV7      -0.069000
     10 C06         -3.1040    -0.7910     0.0680 ca         1 EV7      -0.038000
     11 C07         -4.4490    -0.9210    -0.5120 cc         1 EV7      -0.111000
     12 C08         -5.2400    -2.0190    -0.3340 cd         1 EV7      -0.188000
     13 C11         -5.1810    -0.0290    -1.3160 cc         1 EV7       0.253900
     14 C12         -2.5360    -1.8130     0.8610 ca         1 EV7      -0.122000
     15 C14         -0.5060    -0.4970     1.1550 ca         1 EV7       0.119100
     16 C16          1.8940    -0.4410     0.8820 ca         1 EV7       0.185100
     17 C18          3.0330    -0.9410    -1.2180 ca         1 EV7      -0.084000
     18 C19          4.2480    -0.4940    -0.6670 ca         1 EV7      -0.063000
     19 C23          5.5040     0.4210     1.2150 ca         1 EV7      -0.098000
     20 C25          3.1090    -0.0020     1.4330 ca         1 EV7      -0.128000
     21 N09         -6.4140    -1.7300    -1.0450 na         1 EV7      -0.016200
     22 N10         -6.3730    -0.4780    -1.6610 nd         1 EV7      -0.546800
     23 O01         -0.2530     2.2290    -1.0290 o          1 EV7      -0.702500
     24 O03          0.1360     2.4420     1.0780 o          1 EV7      -0.702500
     25 O15          0.7650    -0.4110     1.6730 os         1 EV7      -0.245200
     26 H1          -0.8160    -2.4610     1.9970 ha         1 EV7       0.103000
     27 H4           7.5480    -0.0890    -1.4780 ha         1 EV7       0.095000
     28 H5           7.6170     0.7410     0.8710 ha         1 EV7       0.095000
     29 H6          -2.7720     1.1840    -0.7630 ha         1 EV7       0.129000
     30 H7          -5.0920    -2.9460     0.2080 h4         1 EV7       0.146000
     31 H8          -4.8750     0.9480    -1.6660 h4         1 EV7       0.045100
     32 H9          -3.0790    -2.7300     1.0650 ha         1 EV7       0.087000
     33 H10          2.9960    -1.3080    -2.2410 ha         1 EV7       0.102000
     34 H11          5.5410     0.7840     2.2400 ha         1 EV7       0.107000
     35 H12          3.1290     0.3580     2.4580 ha         1 EV7       0.129000
     36 H13         -7.2300    -2.3370    -1.1280 hn         1 EV7       0.356000
     37 H2           0.9290    -1.2730    -0.8830 ha         1 EV7       0.127000
     38 H3           5.4060    -0.8770    -2.4620 ha         1 EV7       0.099000
@<TRIPOS>BOND
     1     1    14 ar  
     2     1    15 ar  
     3     1    26 1   
     4     2    16 ar  
     5     2    17 ar  
     6     2    37 1   
     7     3     4 ar  
     8     3    18 ar  
     9     3    38 1   
    10     4     5 ar  
    11     4    27 1   
    12     5    19 ar  
    13     5    28 1   
    14     6    18 ar  
    15     6    19 ar  
    16     6    20 ar  
    17     7     8 1   
    18     7    23 1   
    19     7    24 1   
    20     8     9 ar  
    21     8    15 ar  
    22     9    10 ar  
    23     9    29 1   
    24    10    11 1   
    25    10    14 ar  
    26    11    12 2   
    27    11    13 1   
    28    12    21 1   
    29    12    30 1   
    30    13    22 2   
    31    13    31 1   
    32    14    32 1   
    33    15    25 1   
    34    16    20 ar  
    35    16    25 1   
    36    17    18 ar  
    37    17    33 1   
    38    19    34 1   
    39    20    35 1   
    40    21    22 1   
    41    21    36 1   
@<TRIPOS>SUBSTRUCTURE
     1 EV7         1 TEMP              0 ****  ****    0 ROOT
