@<TRIPOS>MOLECULE
EV7
   38    41     1     0     0
SMALL
abcg2


@<TRIPOS>ATOM
      1 C13         -1.2770    -1.6900     1.4700 ca         1 EV7      -0.149000
      2 C17          1.8600    -1.0600    -0.4080 ca         1 EV7      -0.132000
      3 C20          5.4020    -0.4850    -1.4090 ca         1 EV7      -0.086000
      4 C21          6.5500     0.0440    -0.8870 ca         1 EV7      -0.138000
      5 C22          6.5530     0.5760     0.4210 ca         1 EV7      -0.122000
      6 C24          4.2100     0.0200     0.6670 ca         1 EV7      -0.001000
      7 C02         -0.1320     1.6480    -0.0460 c          1 EV7       0.713600
      8 C04         -0.9350     0.3960     0.2930 ca         1 EV7      -0.148600
      9 C05         -2.2140     0.2550    -0.2350 ca         1 EV7      -0.069000
     10 C06         -3.0550    -0.8060     0.0990 ca         1 EV7      -0.038000
     11 C07         -4.4050    -0.8940    -0.4550 cc         1 EV7      -0.111000
     12 C08         -5.2230    -2.0060    -0.5420 cd         1 EV7      -0.188000
     13 C11         -5.1850     0.1340    -1.0300 cc         1 EV7       0.253900
     14 C12         -2.5660    -1.7770     0.9720 ca         1 EV7      -0.122000
     15 C14         -0.4740    -0.6070     1.1460 ca         1 EV7       0.119100
     16 C16          1.8720    -0.5250     0.9000 ca         1 EV7       0.185100
     17 C18          3.0040    -1.0470    -1.1570 ca         1 EV7      -0.084000
     18 C19          4.2080    -0.5080    -0.6510 ca         1 EV7      -0.063000
     19 C23          5.4140     0.5640     1.1790 ca         1 EV7      -0.098000
     20 C25          3.0200     0.0030     1.4250 ca         1 EV7      -0.128000
     21 N09         -6.3600    -1.6000    -1.1230 na         1 EV7      -0.016200
     22 N10         -6.3620    -0.3080    -1.4260 nd         1 EV7      -0.546800
     23 O01         -0.2310     2.0600    -1.2160 o          1 EV7      -0.702500
     24 O03          0.5100     2.1580     0.8870 o          1 EV7      -0.702500
     25 O15          0.7770    -0.5750     1.7040 os         1 EV7      -0.245200
     26 H1          -0.8950    -2.4620     2.1270 ha         1 EV7       0.103000
     27 H4           7.4600     0.0550    -1.4730 ha         1 EV7       0.095000
     28 H5           7.4660     0.9940     0.8250 ha         1 EV7       0.095000
     29 H6          -2.5620     1.0140    -0.9260 ha         1 EV7       0.129000
     30 H7          -5.0730    -3.0320    -0.2490 h4         1 EV7       0.146000
     31 H8          -4.9280     1.1750    -1.1520 h4         1 EV7       0.045100
     32 H9          -3.1870    -2.6130     1.2690 ha         1 EV7       0.087000
     33 H10          2.9920    -1.4630    -2.1570 ha         1 EV7       0.102000
     34 H11          5.4210     0.9730     2.1830 ha         1 EV7       0.107000
     35 H12          3.0180     0.4160     2.4270 ha         1 EV7       0.129000
     36 H13         -7.1630    -2.1690    -1.3410 hn         1 EV7       0.356000
     37 H2           0.9560    -1.4900    -0.8170 ha         1 EV7       0.127000
     38 H3           5.3930    -0.8950    -2.4120 ha         1 EV7       0.099000
@<TRIPOS>BOND
     1     1    14 ar  
     2     1    15 ar  
     3     1    26 1   
     4     2    16 ar  
     5     2    17 ar  
     6     2    37 1   
     7     3     4 ar  
     8     3    18 ar  
     9     3    38 1   
    10     4     5 ar  
    11     4    27 1   
    12     5    19 ar  
    13     5    28 1   
    14     6    18 ar  
    15     6    19 ar  
    16     6    20 ar  
    17     7     8 1   
    18     7    23 1   
    19     7    24 1   
    20     8     9 ar  
    21     8    15 ar  
    22     9    10 ar  
    23     9    29 1   
    24    10    11 1   
    25    10    14 ar  
    26    11    12 2   
    27    11    13 1   
    28    12    21 1   
    29    12    30 1   
    30    13    22 2   
    31    13    31 1   
    32    14    32 1   
    33    15    25 1   
    34    16    20 ar  
    35    16    25 1   
    36    17    18 ar  
    37    17    33 1   
    38    19    34 1   
    39    20    35 1   
    40    21    22 1   
    41    21    36 1   
@<TRIPOS>SUBSTRUCTURE
     1 EV7         1 TEMP              0 ****  ****    0 ROOT
