@<TRIPOS>MOLECULE
EV8
   56    59     1     0     0
SMALL
No Charge or Current Charge


@<TRIPOS>ATOM
      1 CBF          7.5130     5.2940     0.1600 c3         1 EV8       0.151900
      2 OBE          7.0540     4.0200     0.6490 os         1 EV8      -0.448100
      3 CBC          6.4840     3.1500    -0.2460 c          1 EV8       0.591100
      4 OBD          6.3420     3.3940    -1.4370 o          1 EV8      -0.479000
      5 CAQ          6.0290     1.8190     0.3850 c6         1 EV8      -0.119700
      6 CAR          4.4930     1.6090     0.3620 c6         1 EV8      -0.094900
      7 CAS          4.0970     0.2780     1.0480 c6         1 EV8       0.091500
      8 CAP          6.8150     0.5850    -0.1240 c6         1 EV8      -0.094900
      9 CAO          6.3390    -0.6990     0.5950 c6         1 EV8       0.091500
     10 NAJ          4.8640    -0.8780     0.4960 n          1 EV8      -0.399800
     11 CAH          4.2940    -1.7880    -0.4270 c          1 EV8       0.612700
     12 OAI          4.9850    -2.3180    -1.2900 o          1 EV8      -0.584100
     13 CAA          2.8400    -2.1820    -0.2660 ca         1 EV8      -0.139600
     14 CAF          2.0890    -2.5510    -1.4030 ca         1 EV8      -0.078500
     15 CAE          0.7450    -2.9430    -1.2790 ca         1 EV8      -0.104500
     16 CAB          2.2250    -2.2570     1.0050 ca         1 EV8      -0.078500
     17 CAC          0.8810    -2.6510     1.1270 ca         1 EV8      -0.104500
     18 CAD          0.1330    -2.9920    -0.0140 ca         1 EV8      -0.096300
     19 CAG         -1.3230    -3.4110     0.1200 c3         1 EV8       0.142300
     20 NAK         -2.2080    -2.2520     0.0470 ns         1 EV8      -0.506900
     21 CAL         -3.5790    -2.3130     0.1410 c          1 EV8       0.618700
     22 OAN         -4.1530    -3.3820     0.2970 o          1 EV8      -0.603100
     23 CAM         -4.3260    -1.0010     0.0430 ca         1 EV8      -0.172600
     24 CAV         -5.7380    -1.0060     0.1330 ca         1 EV8       0.002000
     25 CAW         -6.4360     0.2080     0.0430 ca         1 EV8      -0.211000
     26 SAZ         -8.1800     0.3980     0.1320 ss         1 EV8      -0.031200
     27 CBA         -7.8400     2.1300    -0.0780 cc         1 EV8       0.669100
     28 NBB         -8.8000     3.0640    -0.1290 nv         1 EV8      -1.038200
     29 NAY         -6.5920     2.5480    -0.2070 nd         1 EV8      -0.649100
     30 CAX         -5.7890     1.4150    -0.1320 ca         1 EV8       0.173400
     31 CAT         -4.3920     1.4450    -0.2240 ca         1 EV8      -0.095000
     32 CAU         -3.6600     0.2430    -0.1370 ca         1 EV8      -0.076000
     33 H1           6.6840     5.8690    -0.2740 h1         1 EV8       0.049033
     34 H2           7.9440     5.8850     0.9780 h1         1 EV8       0.049033
     35 H3           8.2860     5.1630    -0.6080 h1         1 EV8       0.049033
     36 H4           6.2950     1.9190     1.4470 hc         1 EV8       0.073700
     37 H5           3.9840     2.4480     0.8560 hc         1 EV8       0.063950
     38 H6           4.1390     1.5970    -0.6780 hc         1 EV8       0.063950
     39 H7           4.2910     0.3490     2.1280 h1         1 EV8       0.060700
     40 H8           3.0160     0.1400     0.9200 h1         1 EV8       0.060700
     41 H9           6.6680     0.4710    -1.2070 hc         1 EV8       0.063950
     42 H10          7.8930     0.7240     0.0350 hc         1 EV8       0.063950
     43 H11          6.8630    -1.5720     0.1810 h1         1 EV8       0.060700
     44 H12          6.6140    -0.6410     1.6580 h1         1 EV8       0.060700
     45 H13          2.5460    -2.5220    -2.3910 ha         1 EV8       0.125500
     46 H14          0.1800    -3.2100    -2.1700 ha         1 EV8       0.121000
     47 H15          2.7900    -2.0270     1.9060 ha         1 EV8       0.125500
     48 H16          0.4230    -2.6950     2.1130 ha         1 EV8       0.121000
     49 H17         -1.5850    -4.1130    -0.6830 h1         1 EV8       0.065700
     50 H18         -1.4780    -3.9210     1.0800 h1         1 EV8       0.065700
     51 H19         -1.7920    -1.3390    -0.0810 hn         1 EV8       0.315500
     52 H20         -6.2870    -1.9370     0.2710 ha         1 EV8       0.144000
     53 H21         -9.7300     2.7510    -0.3840 hn         1 EV8       0.505500
     54 H22         -8.5110     3.9580    -0.5100 hn         1 EV8       0.505500
     55 H23         -3.8760     2.3920    -0.3610 ha         1 EV8       0.133000
     56 H24         -2.5770     0.2980    -0.2120 ha         1 EV8       0.114000
@<TRIPOS>BOND
     1     1     2 1   
     2     1    33 1   
     3     1    34 1   
     4     1    35 1   
     5     2     3 1   
     6     3     4 2   
     7     3     5 1   
     8     5     6 1   
     9     5     8 1   
    10     5    36 1   
    11     6     7 1   
    12     6    37 1   
    13     6    38 1   
    14     7    10 1   
    15     7    39 1   
    16     7    40 1   
    17     8     9 1   
    18     8    41 1   
    19     8    42 1   
    20     9    10 1   
    21     9    43 1   
    22     9    44 1   
    23    10    11 1   
    24    11    12 2   
    25    11    13 1   
    26    13    14 ar  
    27    13    16 ar  
    28    14    15 ar  
    29    14    45 1   
    30    15    18 ar  
    31    15    46 1   
    32    16    17 ar  
    33    16    47 1   
    34    17    18 ar  
    35    17    48 1   
    36    18    19 1   
    37    19    20 1   
    38    19    49 1   
    39    19    50 1   
    40    20    21 1   
    41    20    51 1   
    42    21    22 2   
    43    21    23 1   
    44    23    24 ar  
    45    23    32 ar  
    46    24    25 ar  
    47    24    52 1   
    48    25    26 1   
    49    25    30 ar  
    50    26    27 1   
    51    27    28 1   
    52    27    29 2   
    53    28    53 1   
    54    28    54 1   
    55    29    30 1   
    56    30    31 ar  
    57    31    32 ar  
    58    31    55 1   
    59    32    56 1   
@<TRIPOS>SUBSTRUCTURE
     1 EV8         1 TEMP              0 ****  ****    0 ROOT
