@<TRIPOS>MOLECULE
EV8
   56    59     1     0     0
SMALL
abcg2


@<TRIPOS>ATOM
      1 CBF          5.7430     5.2510     0.0870 c3         1 EV8       0.151900
      2 OBE          5.7290     3.9010     0.5500 os         1 EV8      -0.448100
      3 CBC          6.0810     2.9510    -0.3060 c          1 EV8       0.591100
      4 OBD          6.4210     3.1760    -1.4400 o          1 EV8      -0.479000
      5 CAQ          5.9890     1.5790     0.3190 c6         1 EV8      -0.119700
      6 CAR          4.5350     1.2400     0.6780 c6         1 EV8      -0.094900
      7 CAS          4.4290    -0.1690     1.2530 c6         1 EV8       0.091500
      8 CAP          6.5850     0.5020    -0.5810 c6         1 EV8      -0.094900
      9 CAO          6.4170    -0.8680     0.0620 c6         1 EV8       0.091500
     10 NAJ          5.0180    -1.1440     0.3480 n          1 EV8      -0.399800
     11 CAH          4.3090    -1.9440    -0.4770 c          1 EV8       0.612700
     12 OAI          4.7870    -2.4710    -1.4720 o          1 EV8      -0.584100
     13 CAA          2.8840    -2.2250    -0.1180 ca         1 EV8      -0.139600
     14 CAF          1.8970    -2.0350    -1.0830 ca         1 EV8      -0.078500
     15 CAE          0.5790    -2.3510    -0.8040 ca         1 EV8      -0.104500
     16 CAB          2.5350    -2.7690     1.1130 ca         1 EV8      -0.078500
     17 CAC          1.2150    -3.1060     1.3790 ca         1 EV8      -0.104500
     18 CAD          0.2230    -2.8950     0.4280 ca         1 EV8      -0.096300
     19 CAG         -1.2120    -3.2490     0.7180 c3         1 EV8       0.142300
     20 NAK         -2.0680    -2.0920     0.5910 ns         1 EV8      -0.506900
     21 CAL         -3.2490    -2.0930    -0.0560 c          1 EV8       0.618700
     22 OAN         -3.7330    -3.0970    -0.5620 o          1 EV8      -0.603100
     23 CAM         -3.9520    -0.7790    -0.1190 ca         1 EV8      -0.172600
     24 CAV         -5.3360    -0.7910    -0.2780 ca         1 EV8       0.002000
     25 CAW         -6.0020     0.4160    -0.3410 ca         1 EV8      -0.211000
     26 SAZ         -7.7100     0.7030    -0.5110 ss         1 EV8      -0.031200
     27 CBA         -7.3720     2.4340    -0.4790 cc         1 EV8       0.669100
     28 NBB         -8.3790     3.3010    -0.5650 nv         1 EV8      -1.038200
     29 NAY         -6.1230     2.7640    -0.3570 nd         1 EV8      -0.649100
     30 CAX         -5.3320     1.6530    -0.2760 ca         1 EV8       0.173400
     31 CAT         -3.9450     1.6500    -0.1410 ca         1 EV8      -0.095000
     32 CAU         -3.2720     0.4440    -0.0610 ca         1 EV8      -0.076000
     33 H1           5.0540     5.3950    -0.7450 h1         1 EV8       0.049033
     34 H2           5.4230     5.8590     0.9280 h1         1 EV8       0.049033
     35 H3           6.7440     5.5570    -0.2190 h1         1 EV8       0.049033
     36 H4           6.5630     1.6090     1.2530 hc         1 EV8       0.073700
     37 H5           4.1430     1.9420     1.4150 hc         1 EV8       0.063950
     38 H6           3.9030     1.3120    -0.2120 hc         1 EV8       0.063950
     39 H7           4.9540    -0.2210     2.2110 h1         1 EV8       0.060700
     40 H8           3.3860    -0.4050     1.4460 h1         1 EV8       0.060700
     41 H9           6.0980     0.5050    -1.5590 hc         1 EV8       0.063950
     42 H10          7.6470     0.6890    -0.7480 hc         1 EV8       0.063950
     43 H11          6.8220    -1.6480    -0.5770 h1         1 EV8       0.060700
     44 H12          6.9660    -0.9040     1.0080 h1         1 EV8       0.060700
     45 H13          2.1590    -1.6280    -2.0510 ha         1 EV8       0.125500
     46 H14         -0.1800    -2.1810    -1.5580 ha         1 EV8       0.121000
     47 H15          3.2920    -2.9360     1.8700 ha         1 EV8       0.125500
     48 H16          0.9550    -3.5340     2.3400 ha         1 EV8       0.121000
     49 H17         -1.5620    -4.0070     0.0180 h1         1 EV8       0.065700
     50 H18         -1.2950    -3.6780     1.7200 h1         1 EV8       0.065700
     51 H19         -1.8020    -1.2740     1.1150 hn         1 EV8       0.315500
     52 H20         -5.8730    -1.7280    -0.3420 ha         1 EV8       0.144000
     53 H21         -9.3290     3.0110    -0.7160 hn         1 EV8       0.505500
     54 H22         -8.1790     4.2860    -0.6060 hn         1 EV8       0.505500
     55 H23         -3.4020     2.5850    -0.1050 ha         1 EV8       0.133000
     56 H24         -2.1930     0.4680     0.0180 ha         1 EV8       0.114000
@<TRIPOS>BOND
     1     1     2 1   
     2     1    33 1   
     3     1    34 1   
     4     1    35 1   
     5     2     3 1   
     6     3     4 2   
     7     3     5 1   
     8     5     6 1   
     9     5     8 1   
    10     5    36 1   
    11     6     7 1   
    12     6    37 1   
    13     6    38 1   
    14     7    10 1   
    15     7    39 1   
    16     7    40 1   
    17     8     9 1   
    18     8    41 1   
    19     8    42 1   
    20     9    10 1   
    21     9    43 1   
    22     9    44 1   
    23    10    11 1   
    24    11    12 2   
    25    11    13 1   
    26    13    14 ar  
    27    13    16 ar  
    28    14    15 ar  
    29    14    45 1   
    30    15    18 ar  
    31    15    46 1   
    32    16    17 ar  
    33    16    47 1   
    34    17    18 ar  
    35    17    48 1   
    36    18    19 1   
    37    19    20 1   
    38    19    49 1   
    39    19    50 1   
    40    20    21 1   
    41    20    51 1   
    42    21    22 2   
    43    21    23 1   
    44    23    24 ar  
    45    23    32 ar  
    46    24    25 ar  
    47    24    52 1   
    48    25    26 1   
    49    25    30 ar  
    50    26    27 1   
    51    27    28 1   
    52    27    29 2   
    53    28    53 1   
    54    28    54 1   
    55    29    30 1   
    56    30    31 ar  
    57    31    32 ar  
    58    31    55 1   
    59    32    56 1   
@<TRIPOS>SUBSTRUCTURE
     1 EV8         1 TEMP              0 ****  ****    0 ROOT
