@<TRIPOS>MOLECULE
EVA
   21    21     1     0     0
SMALL
bcc


@<TRIPOS>ATOM
      1 C            2.3960     0.4330     0.0000 c          1 EVA       0.930600
      2 N            0.1300     1.3620     0.2450 ns         1 EVA      -0.518900
      3 O            2.7610     1.6030    -0.1580 o          1 EVA      -0.812300
      4 CA           0.9390     0.1830     0.4550 c6         1 EVA      -0.086300
      5 CB           0.3240    -1.0390    -0.2350 c6         1 EVA       0.174100
      6 CG          -1.1260    -1.1560     0.1960 c6         1 EVA       0.149100
      7 OG           1.0230    -2.1970     0.1140 oh         1 EVA      -0.630800
      8 CAE         -1.1890     1.3960     0.0420 c          1 EVA       0.671500
      9 OAJ         -3.1750     0.0420     0.2350 oh         1 EVA      -0.606800
     10 OAK         -1.8460     2.4300     0.0430 o          1 EVA      -0.706500
     11 CD1         -1.8770     0.0740    -0.2920 c6         1 EVA       0.026100
     12 OD2         -1.6670    -2.3320    -0.3500 oh         1 EVA      -0.580800
     13 OXT          3.0950    -0.6020    -0.1350 o          1 EVA      -0.812300
     14 HN           0.6060     2.2450     0.3720 hn         1 EVA       0.340500
     15 HA           0.9840    -0.0430     1.5310 h1         1 EVA       0.045700
     16 HB           0.3490    -0.8700    -1.3270 h1         1 EVA       0.035700
     17 HG          -1.1620    -1.1800     1.2980 h1         1 EVA       0.044700
     18 HOG          1.9630    -1.9160     0.0450 ho         1 EVA       0.468000
     19 HOAJ        -3.6440     0.8230    -0.0770 ho         1 EVA       0.421000
     20 HD1         -1.8950     0.0310    -1.3950 h1         1 EVA       0.052700
     21 HOD2        -2.5900    -2.3930    -0.0820 ho         1 EVA       0.397000
@<TRIPOS>BOND
     1     1     3 1   
     2     1     4 1   
     3     1    13 1   
     4     2     4 1   
     5     2     8 1   
     6     2    14 1   
     7     4     5 1   
     8     4    15 1   
     9     5     6 1   
    10     5     7 1   
    11     5    16 1   
    12     6    11 1   
    13     6    12 1   
    14     6    17 1   
    15     7    18 1   
    16     8    10 2   
    17     8    11 1   
    18     9    11 1   
    19     9    19 1   
    20    11    20 1   
    21    12    21 1   
@<TRIPOS>SUBSTRUCTURE
     1 EVA         1 TEMP              0 ****  ****    0 ROOT
