@<TRIPOS>MOLECULE
EVA
   21    21     1     0     0
SMALL
No Charge or Current Charge


@<TRIPOS>ATOM
      1 C            2.4190     0.4090    -0.1220 c          1 EVA       0.720000
      2 N            0.1010     1.3640     0.3850 ns         1 EVA      -0.451900
      3 O            2.7300     1.5520    -0.4270 o          1 EVA      -0.707000
      4 CA           0.9880     0.1640     0.4330 c6         1 EVA      -0.086300
      5 CB           0.3630    -1.0780    -0.2520 c6         1 EVA       0.197300
      6 CG          -1.1390    -1.2110     0.1650 c6         1 EVA       0.172300
      7 OG           1.1430    -2.2330     0.1110 oh         1 EVA      -0.753000
      8 CAE         -1.2190     1.3940    -0.0050 c          1 EVA       0.529000
      9 OAJ         -3.2960     0.0160     0.2540 oh         1 EVA      -0.729000
     10 OAK         -1.7990     2.4650    -0.1170 o          1 EVA      -0.631000
     11 CD1         -1.9450     0.0380    -0.2920 c6         1 EVA       0.049300
     12 OD2         -1.7690    -2.3830    -0.3870 oh         1 EVA      -0.643000
     13 OXT          3.2430    -0.4500     0.1610 o          1 EVA      -0.707000
     14 HN           0.5310     2.2720     0.5270 hn         1 EVA       0.340500
     15 HA           1.1200    -0.0690     1.5000 h1         1 EVA       0.045700
     16 HB           0.4040    -0.9280    -1.3420 h1         1 EVA       0.035700
     17 HG          -1.1780    -1.2550     1.2640 h1         1 EVA       0.044700
     18 HOG          2.0780    -1.8920     0.1820 ho         1 EVA       0.567000
     19 HOAJ        -3.6480     0.9360     0.1580 ho         1 EVA       0.520000
     20 HD1         -1.9960     0.0000    -1.3910 h1         1 EVA       0.052700
     21 HOD2        -2.7320    -2.2180    -0.2800 ho         1 EVA       0.436000
@<TRIPOS>BOND
     1     1     3 1   
     2     1     4 1   
     3     1    13 1   
     4     2     4 1   
     5     2     8 1   
     6     2    14 1   
     7     4     5 1   
     8     4    15 1   
     9     5     6 1   
    10     5     7 1   
    11     5    16 1   
    12     6    11 1   
    13     6    12 1   
    14     6    17 1   
    15     7    18 1   
    16     8    10 2   
    17     8    11 1   
    18     9    11 1   
    19     9    19 1   
    20    11    20 1   
    21    12    21 1   
@<TRIPOS>SUBSTRUCTURE
     1 EVA         1 TEMP              0 ****  ****    0 ROOT
