@<TRIPOS>MOLECULE
EVB
  136   144     1     0     0
SMALL
bcc


@<TRIPOS>ATOM
      1 C11         72.2740    72.2330   -37.0730 ca         1 EVB      -0.007187
      2 C12         73.1830    71.1840   -37.1430 ca         1 EVB      -0.164425
      3 C13         73.2230    70.2580   -36.0990 ca         1 EVB       0.170600
      4 C14         74.1170    71.0870   -38.3290 c3         1 EVB       0.037575
      5 C15         72.5840    64.5670   -35.1900 c3         1 EVB       0.037575
      6 C17         72.4810    63.1350   -33.1500 ca         1 EVB      -0.007187
      7 C18         73.0460    62.4260   -32.1030 ca         1 EVB      -0.265625
      8 C19         74.4220    62.4370   -31.9370 ca         1 EVB      -0.007187
      9 C20         75.2390    63.1580   -32.7970 ca         1 EVB      -0.164425
     10 C21         74.6490    63.8720   -33.8430 ca         1 EVB       0.170600
     11 C22         75.3930    71.8800   -38.1540 ca         1 EVB      -0.164425
     12 C23         76.5150    71.3680   -37.4930 ca         1 EVB       0.170600
     13 C1          70.3730    68.0400   -33.9550 ca         1 EVB      -0.007187
     14 C2          71.7570    68.1260   -34.0690 ca         1 EVB      -0.164425
     15 C3          72.4590    66.9850   -34.4480 ca         1 EVB       0.170600
     16 C4          71.8150    65.7900   -34.7590 ca         1 EVB      -0.164425
     17 C5          70.4330    65.7430   -34.6460 ca         1 EVB      -0.007187
     18 C6          69.7130    66.8550   -34.2310 ca         1 EVB      -0.265625
     19 C7          72.4450    69.4440   -33.8030 c3         1 EVB       0.037575
     20 C8          72.3910    70.3940   -34.9800 ca         1 EVB      -0.164425
     21 C9          71.4960    71.4540   -34.9500 ca         1 EVB      -0.007187
     22 C10         71.4250    72.3710   -35.9890 ca         1 EVB      -0.265625
     23 C16         73.2660    63.8590   -34.0400 ca         1 EVB      -0.164425
     24 C24         77.6930    72.1130   -37.3790 ca         1 EVB      -0.164425
     25 C25         77.7330    73.3870   -37.9240 ca         1 EVB      -0.007187
     26 C26         76.6270    73.9220   -38.5670 ca         1 EVB      -0.265625
     27 C27         75.4700    73.1660   -38.6770 ca         1 EVB      -0.007187
     28 C28         78.9090    71.5620   -36.6700 c3         1 EVB       0.037575
     29 C29         76.7380    63.1290   -32.6100 c3         1 EVB       0.037575
     30 C30         79.9810    71.0220   -37.5910 ca         1 EVB      -0.164425
     31 C31         79.8590    69.7800   -38.2430 ca         1 EVB       0.170600
     32 C32         80.9010    69.3000   -39.0450 ca         1 EVB      -0.164425
     33 C33         82.0420    70.0770   -39.2090 ca         1 EVB      -0.007187
     34 C34         82.1650    71.3090   -38.5920 ca         1 EVB      -0.265625
     35 C35         81.1340    71.7660   -37.7820 ca         1 EVB      -0.007187
     36 C36         77.4000    62.0400   -33.4270 ca         1 EVB      -0.164425
     37 C37         77.4510    60.7490   -32.9100 ca         1 EVB      -0.007187
     38 C38         78.0550    59.7190   -33.6080 ca         1 EVB      -0.265625
     39 C39         78.6210    59.9730   -34.8490 ca         1 EVB      -0.007187
     40 C40         78.5820    61.2440   -35.4030 ca         1 EVB      -0.164425
     41 C41         77.9620    62.2710   -34.6840 ca         1 EVB       0.170600
     42 C42         80.8100    67.9700   -39.7630 c3         1 EVB       0.037575
     43 C43         79.2020    61.4860   -36.7580 c3         1 EVB       0.037575
     44 C44         81.9330    67.0260   -39.4200 ca         1 EVB      -0.164425
     45 C45         81.9600    66.3780   -38.1740 ca         1 EVB       0.170600
     46 C46         82.9920    65.4930   -37.8520 ca         1 EVB      -0.164425
     47 C47         83.9890    65.2540   -38.7960 ca         1 EVB      -0.007187
     48 C48         83.9730    65.8820   -40.0270 ca         1 EVB      -0.265625
     49 C49         82.9440    66.7670   -40.3300 ca         1 EVB      -0.007187
     50 C50         80.6810    61.8010   -36.7080 ca         1 EVB      -0.164425
     51 C51         81.5960    60.7650   -36.8540 ca         1 EVB      -0.007187
     52 C52         82.9620    61.0030   -36.8580 ca         1 EVB      -0.265625
     53 C53         83.4240    62.3030   -36.7310 ca         1 EVB      -0.007187
     54 C54         82.5420    63.3660   -36.5860 ca         1 EVB      -0.164425
     55 C55         81.1690    63.1030   -36.5490 ca         1 EVB       0.170600
     56 O1          80.9670    66.6710   -37.3130 oh         1 EVB      -0.550725
     57 O2          78.7670    69.0070   -38.1360 oh         1 EVB      -0.550725
     58 O3          76.5500    70.1220   -36.9670 oh         1 EVB      -0.550725
     59 O4          74.1160    69.2480   -36.2370 oh         1 EVB      -0.550725
     60 O5          73.8320    67.0390   -34.5870 oh         1 EVB      -0.550725
     61 O6          75.4910    64.5460   -34.6720 oh         1 EVB      -0.550725
     62 O7          77.9720    63.5050   -35.2520 oh         1 EVB      -0.550725
     63 O8          80.3510    64.1690   -36.3910 oh         1 EVB      -0.550725
     64 S64         85.2250    65.5490   -41.2600 s6         1 EVB       1.276100
     65 S65         83.6260    72.3220   -38.7790 s6         1 EVB       1.276100
     66 S66         76.6780    75.6080   -39.1670 s6         1 EVB       1.276100
     67 S67         70.2870    73.7510   -35.8780 s6         1 EVB       1.276100
     68 S68         67.9230    66.7590   -34.1310 s6         1 EVB       1.276100
     69 S69         72.0010    61.4230   -31.0460 s6         1 EVB       1.276100
     70 S70         78.0650    58.0470   -32.9640 s6         1 EVB       1.276100
     71 S71         84.0990    59.6220   -36.9530 s6         1 EVB       1.276100
     72 C72         83.0700    64.7800   -36.5180 c3         1 EVB       0.037575
     73 O9          85.6900    66.8720   -41.7120 o          1 EVB      -0.713492
     74 O10         86.2680    64.7660   -40.5730 o          1 EVB      -0.713492
     75 O11         84.5260    64.7970   -42.3180 o          1 EVB      -0.713492
     76 O12         84.5050    71.6000   -39.7170 o          1 EVB      -0.713492
     77 O13         83.1380    73.6100   -39.3040 o          1 EVB      -0.713492
     78 O14         84.1910    72.4340   -37.4220 o          1 EVB      -0.713492
     79 O15         75.6400    75.6940   -40.2090 o          1 EVB      -0.713492
     80 O16         76.3850    76.4340   -37.9820 o          1 EVB      -0.713492
     81 O17         78.0470    75.7960   -39.6820 o          1 EVB      -0.713492
     82 O18         68.9950    73.1670   -35.4760 o          1 EVB      -0.713492
     83 O19         70.2670    74.3480   -37.2250 o          1 EVB      -0.713492
     84 O20         70.8620    74.6350   -34.8500 o          1 EVB      -0.713492
     85 O21         67.5240    67.7720   -33.1400 o          1 EVB      -0.713492
     86 O22         67.6340    65.3790   -33.7090 o          1 EVB      -0.713492
     87 O23         67.4630    67.0620   -35.4960 o          1 EVB      -0.713492
     88 O24         70.8090    62.2450   -30.7750 o          1 EVB      -0.713492
     89 O25         72.8050    61.1390   -29.8450 o          1 EVB      -0.713492
     90 O26         71.7040    60.2230   -31.8480 o          1 EVB      -0.713492
     91 O27         76.9600    57.3650   -33.6590 o          1 EVB      -0.713492
     92 O28         77.8470    58.1800   -31.5130 o          1 EVB      -0.713492
     93 O29         79.3920    57.5100   -33.3130 o          1 EVB      -0.713492
     94 O30         85.3980    60.1910   -37.3510 o          1 EVB      -0.713492
     95 O31         84.1030    59.0540   -35.5940 o          1 EVB      -0.713492
     96 O32         83.5290    58.7080   -37.9600 o          1 EVB      -0.713492
     97 H1          72.2330    72.9420   -37.8900 ha         1 EVB       0.141375
     98 H2          73.5960    71.4890   -39.1990 hc         1 EVB       0.039450
     99 H3          74.3340    70.0450   -38.5750 hc         1 EVB       0.039450
    100 H4          71.8790    63.8670   -35.6410 hc         1 EVB       0.039450
    101 H5          73.2840    64.8140   -35.9900 hc         1 EVB       0.039450
    102 H6          71.4070    63.1290   -33.2940 ha         1 EVB       0.141375
    103 H7          74.8770    61.8880   -31.1210 ha         1 EVB       0.141375
    104 H8          69.8180    68.9150   -33.6380 ha         1 EVB       0.141375
    105 H9          69.9210    64.8160   -34.8710 ha         1 EVB       0.141375
    106 H10         73.4770    69.3090   -33.4700 hc         1 EVB       0.039450
    107 H11         71.9410    69.9270   -32.9650 hc         1 EVB       0.039450
    108 H12         70.8490    71.5570   -34.0870 ha         1 EVB       0.141375
    109 H13         78.6460    73.9650   -37.8400 ha         1 EVB       0.141375
    110 H14         74.6100    73.5670   -39.1990 ha         1 EVB       0.141375
    111 H15         78.6220    70.8110   -35.9320 hc         1 EVB       0.039450
    112 H16         79.3560    72.3740   -36.0940 hc         1 EVB       0.039450
    113 H17         77.1780    64.1060   -32.8170 hc         1 EVB       0.039450
    114 H18         76.9440    62.9300   -31.5580 hc         1 EVB       0.039450
    115 H19         82.8430    69.7050   -39.8360 ha         1 EVB       0.141375
    116 H20         81.2200    72.7200   -37.2760 ha         1 EVB       0.141375
    117 H21         77.0240    60.5620   -31.9320 ha         1 EVB       0.141375
    118 H22         79.1010    59.1760   -35.4040 ha         1 EVB       0.141375
    119 H23         80.8380    68.1550   -40.8400 hc         1 EVB       0.039450
    120 H24         79.8530    67.4940   -39.5610 hc         1 EVB       0.039450
    121 H25         78.6580    62.2610   -37.3010 hc         1 EVB       0.039450
    122 H26         79.0810    60.5770   -37.3490 hc         1 EVB       0.039450
    123 H27         84.7930    64.5720   -38.5450 ha         1 EVB       0.141375
    124 H28         82.9160    67.2650   -41.2920 ha         1 EVB       0.141375
    125 H29         81.2190    59.7580   -36.9860 ha         1 EVB       0.141375
    126 H30         84.4880    62.5050   -36.7500 ha         1 EVB       0.141375
    127 H31         80.7560    65.8900   -36.7720 ho         1 EVB       0.454375
    128 H32         78.0630    69.3850   -37.5810 ho         1 EVB       0.454375
    129 H33         75.6670    69.7330   -36.7920 ho         1 EVB       0.454375
    130 H34         74.0680    68.5490   -35.5560 ho         1 EVB       0.454375
    131 H35         74.2570    67.1960   -33.7320 ho         1 EVB       0.454375
    132 H36         75.0680    65.3240   -35.0610 ho         1 EVB       0.454375
    133 H37         77.1740    64.0220   -35.0310 ho         1 EVB       0.454375
    134 H38         79.4520    63.9390   -36.0800 ho         1 EVB       0.454375
    135 H39         84.1190    64.7350   -36.2210 hc         1 EVB       0.039450
    136 H40         82.5680    65.3500   -35.7330 hc         1 EVB       0.039450
@<TRIPOS>BOND
     1     1     2 ar  
     2     1    22 ar  
     3     1    97 1   
     4     2     3 ar  
     5     2     4 1   
     6     3    20 ar  
     7     3    59 1   
     8     4    11 1   
     9     4    98 1   
    10     4    99 1   
    11     5    16 1   
    12     5    23 1   
    13     5   100 1   
    14     5   101 1   
    15     6     7 ar  
    16     6    23 ar  
    17     6   102 1   
    18     7     8 ar  
    19     7    69 1   
    20     8     9 ar  
    21     8   103 1   
    22     9    10 ar  
    23     9    29 1   
    24    10    23 ar  
    25    10    61 1   
    26    11    12 ar  
    27    11    27 ar  
    28    12    24 ar  
    29    12    58 1   
    30    13    14 ar  
    31    13    18 ar  
    32    13   104 1   
    33    14    15 ar  
    34    14    19 1   
    35    15    16 ar  
    36    15    60 1   
    37    16    17 ar  
    38    17    18 ar  
    39    17   105 1   
    40    18    68 1   
    41    19    20 1   
    42    19   106 1   
    43    19   107 1   
    44    20    21 ar  
    45    21    22 ar  
    46    21   108 1   
    47    22    67 1   
    48    24    25 ar  
    49    24    28 1   
    50    25    26 ar  
    51    25   109 1   
    52    26    27 ar  
    53    26    66 1   
    54    27   110 1   
    55    28    30 1   
    56    28   111 1   
    57    28   112 1   
    58    29    36 1   
    59    29   113 1   
    60    29   114 1   
    61    30    31 ar  
    62    30    35 ar  
    63    31    32 ar  
    64    31    57 1   
    65    32    33 ar  
    66    32    42 1   
    67    33    34 ar  
    68    33   115 1   
    69    34    35 ar  
    70    34    65 1   
    71    35   116 1   
    72    36    37 ar  
    73    36    41 ar  
    74    37    38 ar  
    75    37   117 1   
    76    38    39 ar  
    77    38    70 1   
    78    39    40 ar  
    79    39   118 1   
    80    40    41 ar  
    81    40    43 1   
    82    41    62 1   
    83    42    44 1   
    84    42   119 1   
    85    42   120 1   
    86    43    50 1   
    87    43   121 1   
    88    43   122 1   
    89    44    45 ar  
    90    44    49 ar  
    91    45    46 ar  
    92    45    56 1   
    93    46    47 ar  
    94    46    72 1   
    95    47    48 ar  
    96    47   123 1   
    97    48    49 ar  
    98    48    64 1   
    99    49   124 1   
   100    50    51 ar  
   101    50    55 ar  
   102    51    52 ar  
   103    51   125 1   
   104    52    53 ar  
   105    52    71 1   
   106    53    54 ar  
   107    53   126 1   
   108    54    55 ar  
   109    54    72 1   
   110    55    63 1   
   111    56   127 1   
   112    57   128 1   
   113    58   129 1   
   114    59   130 1   
   115    60   131 1   
   116    61   132 1   
   117    62   133 1   
   118    63   134 1   
   119    64    73 1   
   120    64    74 1   
   121    64    75 1   
   122    65    76 1   
   123    65    77 1   
   124    65    78 1   
   125    66    79 1   
   126    66    80 1   
   127    66    81 1   
   128    67    82 1   
   129    67    83 1   
   130    67    84 1   
   131    68    85 1   
   132    68    86 1   
   133    68    87 1   
   134    69    88 1   
   135    69    89 1   
   136    69    90 1   
   137    70    91 1   
   138    70    92 1   
   139    70    93 1   
   140    71    94 1   
   141    71    95 1   
   142    71    96 1   
   143    72   135 1   
   144    72   136 1   
@<TRIPOS>SUBSTRUCTURE
     1 EVB         1 TEMP              0 ****  ****    0 ROOT
