@<TRIPOS>MOLECULE
EVB
  136   144     1     0     0
SMALL
No Charge or Current Charge


@<TRIPOS>ATOM
      1 C11         72.4010    72.4820   -36.8120 ca         1 EVB       0.010813
      2 C12         73.1930    71.3340   -37.0040 ca         1 EVB      -0.164425
      3 C13         73.2390    70.3490   -35.9950 ca         1 EVB       0.170600
      4 C14         73.9820    71.1960   -38.3080 c3         1 EVB       0.037575
      5 C15         72.6720    64.6250   -35.2930 c3         1 EVB       0.037575
      6 C17         72.3880    62.8480   -33.5140 ca         1 EVB       0.010813
      7 C18         72.8810    61.9850   -32.5170 ca         1 EVB      -0.265625
      8 C19         74.2490    62.0230   -32.1860 ca         1 EVB       0.010813
      9 C20         75.1180    62.9320   -32.8190 ca         1 EVB      -0.164425
     10 C21         74.6050    63.8060   -33.8000 ca         1 EVB       0.170600
     11 C22         75.2920    71.9830   -38.2650 ca         1 EVB      -0.164425
     12 C23         76.4350    71.4930   -37.5980 ca         1 EVB       0.170600
     13 C1          70.4820    68.1510   -34.0120 ca         1 EVB       0.010813
     14 C2          71.8900    68.1830   -34.0110 ca         1 EVB      -0.164425
     15 C3          72.6070    67.0250   -34.3820 ca         1 EVB       0.170600
     16 C4          71.9240    65.8610   -34.7910 ca         1 EVB      -0.164425
     17 C5          70.5150    65.8470   -34.7770 ca         1 EVB       0.010813
     18 C6          69.7880    66.9830   -34.3760 ca         1 EVB      -0.265625
     19 C7          72.5860    69.4990   -33.6510 c3         1 EVB       0.037575
     20 C8          72.5150    70.5170   -34.7930 ca         1 EVB      -0.164425
     21 C9          71.7230    71.6710   -34.6240 ca         1 EVB       0.010813
     22 C10         71.6540    72.6520   -35.6310 ca         1 EVB      -0.265625
     23 C16         73.2420    63.7590   -34.1650 ca         1 EVB      -0.164425
     24 C24         77.6300    72.2440   -37.5740 ca         1 EVB      -0.164425
     25 C25         77.6770    73.4860   -38.2350 ca         1 EVB       0.010813
     26 C26         76.5480    73.9840   -38.9130 ca         1 EVB      -0.265625
     27 C27         75.3580    73.2330   -38.9140 ca         1 EVB       0.010813
     28 C28         78.8710    71.7630   -36.8200 c3         1 EVB       0.037575
     29 C29         76.5960    62.9410   -32.4230 c3         1 EVB       0.037575
     30 C30         79.9300    71.1720   -37.7510 ca         1 EVB      -0.164425
     31 C31         79.8030    69.8750   -38.2970 ca         1 EVB       0.170600
     32 C32         80.8310    69.3370   -39.1110 ca         1 EVB      -0.164425
     33 C33         81.9640    70.1270   -39.3920 ca         1 EVB       0.010813
     34 C34         82.0900    71.4280   -38.8720 ca         1 EVB      -0.265625
     35 C35         81.0750    71.9390   -38.0440 ca         1 EVB       0.010813
     36 C36         77.3840    61.8630   -33.1680 ca         1 EVB      -0.164425
     37 C37         77.6570    60.6460   -32.5120 ca         1 EVB       0.010813
     38 C38         78.3890    59.6290   -33.1540 ca         1 EVB      -0.265625
     39 C39         78.8330    59.8280   -34.4740 ca         1 EVB       0.010813
     40 C40         78.5640    61.0340   -35.1500 ca         1 EVB      -0.164425
     41 C41         77.8430    62.0520   -34.4900 ca         1 EVB       0.170600
     42 C42         80.7500    67.9280   -39.7220 c3         1 EVB       0.037575
     43 C43         79.0390    61.1890   -36.5950 c3         1 EVB       0.037575
     44 C44         81.8960    67.0150   -39.2650 ca         1 EVB      -0.164425
     45 C45         81.8130    66.2460   -38.0800 ca         1 EVB       0.170600
     46 C46         82.8920    65.4260   -37.6810 ca         1 EVB      -0.164425
     47 C47         84.0430    65.3590   -38.4900 ca         1 EVB       0.010813
     48 C48         84.1330    66.1040   -39.6800 ca         1 EVB      -0.265625
     49 C49         83.0550    66.9240   -40.0620 ca         1 EVB       0.010813
     50 C50         80.5180    61.5620   -36.6810 ca         1 EVB      -0.164425
     51 C51         81.4530    60.5560   -36.9980 ca         1 EVB       0.010813
     52 C52         82.8220    60.8580   -37.1250 ca         1 EVB      -0.265625
     53 C53         83.2560    62.1810   -36.9210 ca         1 EVB       0.010813
     54 C54         82.3380    63.2000   -36.5980 ca         1 EVB      -0.164425
     55 C55         80.9670    62.8850   -36.4750 ca         1 EVB       0.170600
     56 O1          80.6770    66.2770   -37.3260 oh         1 EVB      -0.589725
     57 O2          78.6780    69.1440   -38.0400 oh         1 EVB      -0.589725
     58 O3          76.3980    70.2820   -36.9720 oh         1 EVB      -0.589725
     59 O4          74.0080    69.2380   -36.1880 oh         1 EVB      -0.589725
     60 O5          73.9720    67.0430   -34.3720 oh         1 EVB      -0.589725
     61 O6          75.4350    64.7060   -34.3980 oh         1 EVB      -0.589725
     62 O7          77.5970    63.2250   -35.1410 oh         1 EVB      -0.589725
     63 O8          80.0770    63.8690   -36.1520 oh         1 EVB      -0.589725
     64 S64         85.6420    65.9830   -40.7420 s6         1 EVB       1.276100
     65 S65         83.5970    72.4310   -39.2520 s6         1 EVB       1.276100
     66 S66         76.6190    75.6250   -39.7610 s6         1 EVB       1.276100
     67 S67         70.6230    74.1670   -35.3840 s6         1 EVB       1.276100
     68 S68         67.9390    66.9670   -34.3820 s6         1 EVB       1.276100
     69 S69         71.7490    60.7820   -31.6860 s6         1 EVB       1.276100
     70 S70         78.7310    58.0350   -32.2810 s6         1 EVB       1.276100
     71 S71         84.0390    59.5270   -37.5310 s6         1 EVB       1.276100
     72 C72         82.8620    64.6190   -36.3810 c3         1 EVB       0.037575
     73 O9          85.6590    67.2900   -41.4160 o          1 EVB      -0.713492
     74 O10         86.7030    65.7470   -39.7510 o          1 EVB      -0.713492
     75 O11         85.3000    64.8330   -41.5930 o          1 EVB      -0.713492
     76 O12         83.8610    72.0690   -40.6520 o          1 EVB      -0.713492
     77 O13         83.1340    73.8070   -39.0120 o          1 EVB      -0.713492
     78 O14         84.5500    71.8980   -38.2670 o          1 EVB      -0.713492
     79 O15         75.6240    75.4680   -40.8330 o          1 EVB      -0.713492
     80 O16         76.2380    76.5290   -38.6650 o          1 EVB      -0.713492
     81 O17         78.0260    75.6980   -40.1840 o          1 EVB      -0.713492
     82 O18         69.5230    73.6620   -34.5490 o          1 EVB      -0.713492
     83 O19         70.2750    74.5390   -36.7640 o          1 EVB      -0.713492
     84 O20         71.5790    75.0540   -34.7060 o          1 EVB      -0.713492
     85 O21         67.6180    67.8690   -33.2650 o          1 EVB      -0.713492
     86 O22         67.6360    65.5420   -34.1770 o          1 EVB      -0.713492
     87 O23         67.6540    67.4920   -35.7250 o          1 EVB      -0.713492
     88 O24         70.4740    61.5140   -31.6710 o          1 EVB      -0.713492
     89 O25         72.4020    60.5840   -30.3820 o          1 EVB      -0.713492
     90 O26         71.8160    59.6410   -32.6120 o          1 EVB      -0.713492
     91 O27         77.5380    57.2540   -32.6380 o          1 EVB      -0.713492
     92 O28         78.8160    58.4610   -30.8760 o          1 EVB      -0.713492
     93 O29         79.9890    57.5980   -32.9060 o          1 EVB      -0.713492
     94 O30         85.0810    60.2670   -38.2600 o          1 EVB      -0.713492
     95 O31         84.4130    59.0630   -36.1870 o          1 EVB      -0.713492
     96 O32         83.2280    58.5920   -38.3250 o          1 EVB      -0.713492
     97 H1          72.3700    73.2460   -37.5870 ha         1 EVB       0.123375
     98 H2          73.3620    71.5520   -39.1400 hc         1 EVB       0.039450
     99 H3          74.1780    70.1460   -38.5540 hc         1 EVB       0.039450
    100 H4          71.9950    64.0090   -35.8990 hc         1 EVB       0.039450
    101 H5          73.4530    64.9240   -36.0020 hc         1 EVB       0.039450
    102 H6          71.3380    62.8030   -33.7960 ha         1 EVB       0.123375
    103 H7          74.6440    61.3430   -31.4330 ha         1 EVB       0.123375
    104 H8          69.9270    69.0460   -33.7360 ha         1 EVB       0.123375
    105 H9          69.9840    64.9500   -35.0920 ha         1 EVB       0.123375
    106 H10         73.6310    69.3500   -33.3580 hc         1 EVB       0.039450
    107 H11         72.1130    69.9110   -32.7510 hc         1 EVB       0.039450
    108 H12         71.1650    71.8100   -33.7010 ha         1 EVB       0.123375
    109 H13         78.5960    74.0690   -38.2140 ha         1 EVB       0.123375
    110 H14         74.4770    73.6190   -39.4230 ha         1 EVB       0.123375
    111 H15         78.6170    71.0380   -36.0380 hc         1 EVB       0.039450
    112 H16         79.2950    72.6090   -36.2650 hc         1 EVB       0.039450
    113 H17         77.0510    63.9250   -32.5820 hc         1 EVB       0.039450
    114 H18         76.6790    62.7810   -31.3410 hc         1 EVB       0.039450
    115 H19         82.7550    69.7280   -40.0230 ha         1 EVB       0.123375
    116 H20         81.1750    72.9360   -37.6190 ha         1 EVB       0.123375
    117 H21         77.2980    60.4910   -31.4970 ha         1 EVB       0.123375
    118 H22         79.3840    59.0410   -34.9850 ha         1 EVB       0.123375
    119 H23         80.7730    68.0220   -40.8150 hc         1 EVB       0.039450
    120 H24         79.7870    67.4460   -39.5180 hc         1 EVB       0.039450
    121 H25         78.4340    61.9190   -37.1460 hc         1 EVB       0.039450
    122 H26         78.8630    60.2470   -37.1300 hc         1 EVB       0.039450
    123 H27         84.8720    64.7210   -38.1900 ha         1 EVB       0.123375
    124 H28         83.1140    67.4940   -40.9870 ha         1 EVB       0.123375
    125 H29         81.1120    59.5340   -37.1490 ha         1 EVB       0.123375
    126 H30         84.3130    62.4210   -37.0090 ha         1 EVB       0.123375
    127 H31         80.6180    65.4140   -36.8400 ho         1 EVB       0.493375
    128 H32         78.0120    69.7360   -37.6070 ho         1 EVB       0.493375
    129 H33         75.4470    70.0320   -36.8330 ho         1 EVB       0.493375
    130 H34         73.7360    68.5510   -35.5340 ho         1 EVB       0.493375
    131 H35         74.2580    67.4830   -33.5380 ho         1 EVB       0.493375
    132 H36         74.8770    65.4900   -34.6320 ho         1 EVB       0.493375
    133 H37         76.8250    63.6700   -34.7010 ho         1 EVB       0.493375
    134 H38         79.2290    63.4380   -35.8660 ho         1 EVB       0.493375
    135 H39         83.8740    64.5710   -35.9610 hc         1 EVB       0.039450
    136 H40         82.2830    65.1380   -35.6080 hc         1 EVB       0.039450
@<TRIPOS>BOND
     1     1     2 ar  
     2     1    22 ar  
     3     1    97 1   
     4     2     3 ar  
     5     2     4 1   
     6     3    20 ar  
     7     3    59 1   
     8     4    11 1   
     9     4    98 1   
    10     4    99 1   
    11     5    16 1   
    12     5    23 1   
    13     5   100 1   
    14     5   101 1   
    15     6     7 ar  
    16     6    23 ar  
    17     6   102 1   
    18     7     8 ar  
    19     7    69 1   
    20     8     9 ar  
    21     8   103 1   
    22     9    10 ar  
    23     9    29 1   
    24    10    23 ar  
    25    10    61 1   
    26    11    12 ar  
    27    11    27 ar  
    28    12    24 ar  
    29    12    58 1   
    30    13    14 ar  
    31    13    18 ar  
    32    13   104 1   
    33    14    15 ar  
    34    14    19 1   
    35    15    16 ar  
    36    15    60 1   
    37    16    17 ar  
    38    17    18 ar  
    39    17   105 1   
    40    18    68 1   
    41    19    20 1   
    42    19   106 1   
    43    19   107 1   
    44    20    21 ar  
    45    21    22 ar  
    46    21   108 1   
    47    22    67 1   
    48    24    25 ar  
    49    24    28 1   
    50    25    26 ar  
    51    25   109 1   
    52    26    27 ar  
    53    26    66 1   
    54    27   110 1   
    55    28    30 1   
    56    28   111 1   
    57    28   112 1   
    58    29    36 1   
    59    29   113 1   
    60    29   114 1   
    61    30    31 ar  
    62    30    35 ar  
    63    31    32 ar  
    64    31    57 1   
    65    32    33 ar  
    66    32    42 1   
    67    33    34 ar  
    68    33   115 1   
    69    34    35 ar  
    70    34    65 1   
    71    35   116 1   
    72    36    37 ar  
    73    36    41 ar  
    74    37    38 ar  
    75    37   117 1   
    76    38    39 ar  
    77    38    70 1   
    78    39    40 ar  
    79    39   118 1   
    80    40    41 ar  
    81    40    43 1   
    82    41    62 1   
    83    42    44 1   
    84    42   119 1   
    85    42   120 1   
    86    43    50 1   
    87    43   121 1   
    88    43   122 1   
    89    44    45 ar  
    90    44    49 ar  
    91    45    46 ar  
    92    45    56 1   
    93    46    47 ar  
    94    46    72 1   
    95    47    48 ar  
    96    47   123 1   
    97    48    49 ar  
    98    48    64 1   
    99    49   124 1   
   100    50    51 ar  
   101    50    55 ar  
   102    51    52 ar  
   103    51   125 1   
   104    52    53 ar  
   105    52    71 1   
   106    53    54 ar  
   107    53   126 1   
   108    54    55 ar  
   109    54    72 1   
   110    55    63 1   
   111    56   127 1   
   112    57   128 1   
   113    58   129 1   
   114    59   130 1   
   115    60   131 1   
   116    61   132 1   
   117    62   133 1   
   118    63   134 1   
   119    64    73 1   
   120    64    74 1   
   121    64    75 1   
   122    65    76 1   
   123    65    77 1   
   124    65    78 1   
   125    66    79 1   
   126    66    80 1   
   127    66    81 1   
   128    67    82 1   
   129    67    83 1   
   130    67    84 1   
   131    68    85 1   
   132    68    86 1   
   133    68    87 1   
   134    69    88 1   
   135    69    89 1   
   136    69    90 1   
   137    70    91 1   
   138    70    92 1   
   139    70    93 1   
   140    71    94 1   
   141    71    95 1   
   142    71    96 1   
   143    72   135 1   
   144    72   136 1   
@<TRIPOS>SUBSTRUCTURE
     1 EVB         1 TEMP              0 ****  ****    0 ROOT
