@<TRIPOS>MOLECULE
EVC
   81    85     1     0     0
SMALL
No Charge or Current Charge


@<TRIPOS>ATOM
      1 C18          7.5970    -2.1600     2.1200 ca         1 EVC      -0.039000
      2 C19          8.8020    -1.7960     1.5050 ca         1 EVC      -0.148000
      3 C12         -2.4830     2.2670    -1.7930 ca         1 EVC      -0.104000
      4 C17          6.3900    -1.6000     1.6730 ca         1 EVC      -0.133000
      5 C13         -1.0910     2.1220    -1.6580 ca         1 EVC      -0.181000
      6 C20          8.8000    -0.8730     0.4480 ca         1 EVC      -0.006000
      7 C9          -1.4160     0.4870     0.0980 ca         1 EVC      -0.209000
      8 C6           2.1970    -1.9870     0.4000 ca         1 EVC       0.204900
      9 C11         -3.3660     1.5180    -0.9900 ca         1 EVC       0.222000
     10 C8          -0.5530     1.2230    -0.7280 ca         1 EVC       0.324000
     11 C16          6.3700    -0.6820     0.6040 ca         1 EVC       0.415000
     12 C10         -2.8160     0.6230    -0.0260 ca         1 EVC       0.154100
     13 C21          7.5860    -0.3120    -0.0040 ca         1 EVC      -0.310500
     14 C3           1.7150     0.1390    -0.2180 ca         1 EVC       0.436900
     15 C1           3.8500    -0.4530     0.1950 ca         1 EVC       0.443900
     16 C37         -5.6370     0.4910    -1.5050 c6         1 EVC       0.187800
     17 C41         -5.4120     2.9800    -1.4650 c6         1 EVC       0.187800
     18 C38         -7.0730     0.6290    -0.9070 c6         1 EVC       0.163300
     19 C40         -6.8640     3.0720    -0.8850 c6         1 EVC       0.163300
     20 C31         -6.8860    -2.6410     1.9710 c6         1 EVC       0.126800
     21 C35         -5.2560    -3.2160     0.2180 c6         1 EVC       0.126800
     22 C32         -8.0360    -2.9530     0.9690 c6         1 EVC       0.153100
     23 C34         -6.4420    -3.5200    -0.7460 c6         1 EVC       0.153100
     24 C27          6.1810     3.9100     0.7340 c3         1 EVC      -0.095100
     25 C42         -9.1070     2.0300    -0.7550 c3         1 EVC       0.155100
     26 C29         -4.5330    -1.8650     2.2060 c3         1 EVC       0.167800
     27 C26          7.1440     2.7590     0.4110 c3         1 EVC       0.194800
     28 C28         -3.2680    -1.2300     1.5660 c3         1 EVC       0.162600
     29 N2           1.2510    -1.0940     0.0480 nb         1 EVC      -0.298000
     30 N5           3.5150    -1.7220     0.4870 nb         1 EVC      -0.290000
     31 N4           3.0010     0.5130    -0.1770 nb         1 EVC      -0.343000
     32 N36         -4.7720     1.6630    -1.1610 nh         1 EVC      -0.761400
     33 N39         -7.7320     1.9190    -1.2850 n3         1 EVC      -0.720600
     34 N30         -5.6380    -2.2170     1.2660 n3         1 EVC      -0.713600
     35 N15          5.1760    -0.0820     0.2150 nu         1 EVC      -0.945900
     36 O33         -7.6070    -3.9410     0.0030 os         1 EVC      -0.449000
     37 O14         -3.6770    -0.0820     0.8000 os         1 EVC      -0.322100
     38 S22          7.6350     0.8240    -1.3900 sy         1 EVC       1.130600
     39 H1           7.5970    -2.8670     2.9480 ha         1 EVC       0.118000
     40 H2           9.7400    -2.2260     1.8500 ha         1 EVC       0.122000
     41 H3          -2.8750     2.9550    -2.5370 ha         1 EVC       0.117000
     42 H4           5.4710    -1.8640     2.1840 ha         1 EVC       0.137000
     43 H5          -0.4310     2.7060    -2.2950 ha         1 EVC       0.113000
     44 H6           9.7470    -0.6050    -0.0200 ha         1 EVC       0.143000
     45 H7          -0.9960    -0.1650     0.8520 ha         1 EVC       0.155000
     46 H8           1.8720    -3.0010     0.6270 h5         1 EVC       0.049100
     47 H9          -5.1960    -0.4480    -1.1450 h1         1 EVC       0.045450
     48 H10         -5.7190     0.4040    -2.5980 h1         1 EVC       0.045450
     49 H11         -5.4530     3.1310    -2.5540 h1         1 EVC       0.045450
     50 H12         -4.8160     3.8020    -1.0420 h1         1 EVC       0.045450
     51 H13         -7.6770    -0.2230    -1.2520 h1         1 EVC       0.037450
     52 H14         -7.0020     0.5460     0.1880 h1         1 EVC       0.037450
     53 H15         -6.7940     3.1220     0.2120 h1         1 EVC       0.037450
     54 H16         -7.3130     4.0190    -1.2190 h1         1 EVC       0.037450
     55 H18         -6.6940    -3.5380     2.5790 h1         1 EVC       0.040950
     56 H19         -4.9320    -4.1560     0.6870 h1         1 EVC       0.040950
     57 H20         -4.4130    -2.8460    -0.3820 h1         1 EVC       0.040950
     58 H21         -8.9120    -3.3350     1.5110 h1         1 EVC       0.050950
     59 H22         -8.3340    -2.0350     0.4420 h1         1 EVC       0.050950
     60 H23         -6.6910    -2.6210    -1.3290 h1         1 EVC       0.050950
     61 H24         -6.1580    -4.3150    -1.4500 h1         1 EVC       0.050950
     62 H25          5.1580     3.5350     0.8550 hc         1 EVC       0.045033
     63 H26          6.4790     4.4020     1.6670 hc         1 EVC       0.045033
     64 H27          6.1860     4.6590    -0.0660 hc         1 EVC       0.045033
     65 H28         -9.5770     2.9650    -1.0900 h1         1 EVC       0.028700
     66 H29         -9.7270     1.1950    -1.1070 h1         1 EVC       0.028700
     67 H30         -9.1060     2.0190     0.3440 h1         1 EVC       0.028700
     68 H31         -4.2190    -2.7610     2.7590 h1         1 EVC       0.043700
     69 H32         -4.9080    -1.1520     2.9530 h1         1 EVC       0.043700
     70 H33          8.1640     3.1570     0.3180 h1         1 EVC       0.053700
     71 H34          7.1370     2.0530     1.2530 h1         1 EVC       0.053700
     72 H35         -2.5690    -0.9410     2.3600 h1         1 EVC       0.038700
     73 H36         -2.7730    -1.9690     0.9230 h1         1 EVC       0.038700
     74 H40          5.3370     0.8230    -0.2380 hn         1 EVC       0.535000
     75 N7           0.8350     1.1250    -0.6280 nu         1 EVC      -0.914900
     76 N23          6.7150     2.1020    -0.8350 n7         1 EVC      -0.888300
     77 O24          8.9890     1.3400    -1.5930 o          1 EVC      -0.538000
     78 O25          6.8470     0.2570    -2.4850 o          1 EVC      -0.538000
     79 H17         -7.2220    -1.8510     2.6590 h1         1 EVC       0.040950
     80 H39          1.3280     1.9250    -1.0180 hn         1 EVC       0.511000
     81 H41          6.8260     2.7620    -1.6060 hn         1 EVC       0.482000
@<TRIPOS>BOND
     1     1     2 ar  
     2     1     4 ar  
     3     1    39 1   
     4     2     6 ar  
     5     2    40 1   
     6     3     5 ar  
     7     3     9 ar  
     8     3    41 1   
     9     4    11 ar  
    10     4    42 1   
    11     5    10 ar  
    12     5    43 1   
    13     6    13 ar  
    14     6    44 1   
    15     7    10 ar  
    16     7    12 ar  
    17     7    45 1   
    18     8    29 ar  
    19     8    30 ar  
    20     8    46 1   
    21     9    12 ar  
    22     9    32 1   
    23    10    75 1   
    24    11    13 ar  
    25    11    35 1   
    26    12    37 1   
    27    13    38 1   
    28    14    29 ar  
    29    14    31 ar  
    30    14    75 1   
    31    15    30 ar  
    32    15    31 ar  
    33    15    35 1   
    34    16    18 1   
    35    16    32 1   
    36    16    47 1   
    37    16    48 1   
    38    17    19 1   
    39    17    32 1   
    40    17    49 1   
    41    17    50 1   
    42    18    33 1   
    43    18    51 1   
    44    18    52 1   
    45    19    33 1   
    46    19    53 1   
    47    19    54 1   
    48    20    22 1   
    49    20    34 1   
    50    20    55 1   
    51    20    79 1   
    52    21    23 1   
    53    21    34 1   
    54    21    56 1   
    55    21    57 1   
    56    22    36 1   
    57    22    58 1   
    58    22    59 1   
    59    23    36 1   
    60    23    60 1   
    61    23    61 1   
    62    24    27 1   
    63    24    62 1   
    64    24    63 1   
    65    24    64 1   
    66    25    33 1   
    67    25    65 1   
    68    25    66 1   
    69    25    67 1   
    70    26    28 1   
    71    26    34 1   
    72    26    68 1   
    73    26    69 1   
    74    27    70 1   
    75    27    71 1   
    76    27    76 1   
    77    28    37 1   
    78    28    72 1   
    79    28    73 1   
    80    35    74 1   
    81    38    76 1   
    82    38    77 2   
    83    38    78 2   
    84    75    80 1   
    85    76    81 1   
@<TRIPOS>SUBSTRUCTURE
     1 EVC         1 TEMP              0 ****  ****    0 ROOT
