@<TRIPOS>MOLECULE
EVC
   81    85     1     0     0
SMALL
bcc


@<TRIPOS>ATOM
      1 C18          7.2520    -1.5900     2.6610 ca         1 EVC      -0.057000
      2 C19          8.3570    -1.7240     1.8310 ca         1 EVC      -0.166000
      3 C12         -2.7760     2.6350    -0.9120 ca         1 EVC      -0.122000
      4 C17          6.1140    -0.9300     2.2300 ca         1 EVC      -0.151000
      5 C13         -1.3930     2.5380    -0.8470 ca         1 EVC      -0.199000
      6 C20          8.3110    -1.2000     0.5520 ca         1 EVC      -0.024000
      7 C9          -1.6110     0.5510     0.4830 ca         1 EVC      -0.227000
      8 C6           2.0030    -1.2910     1.4790 ca         1 EVC       0.730900
      9 C11         -3.6120     1.7170    -0.2880 ca         1 EVC       0.083600
     10 C8          -0.7970     1.4880    -0.1580 ca         1 EVC       0.185600
     11 C16          6.0430    -0.4070     0.9400 ca         1 EVC       0.276600
     12 C10         -2.9920     0.6730     0.4310 ca         1 EVC       0.154100
     13 C21          7.1620    -0.5570     0.1060 ca         1 EVC      -0.310500
     14 C3           1.4760     0.5770     0.3780 ca         1 EVC       0.962900
     15 C1           3.6270     0.0130     0.6980 ca         1 EVC       0.969900
     16 C37         -5.7010     0.7390    -1.0340 c6         1 EVC       0.187800
     17 C41         -5.5870     3.0930    -0.6210 c6         1 EVC       0.187800
     18 C38         -7.1790     0.7590    -0.7030 c6         1 EVC       0.163300
     19 C40         -7.0650     3.0960    -0.2750 c6         1 EVC       0.163300
     20 C31         -6.6900    -3.0340     1.0640 c6         1 EVC       0.126800
     21 C35         -4.7660    -3.4840    -0.2540 c6         1 EVC       0.126800
     22 C32         -7.5510    -3.2450    -0.1660 c6         1 EVC       0.129900
     23 C34         -5.6700    -3.6750    -1.4560 c6         1 EVC       0.129900
     24 C27          7.2950     3.8210    -0.6180 c3         1 EVC      -0.095100
     25 C42         -9.1830     2.0700    -0.7250 c3         1 EVC       0.155100
     26 C29         -4.5440    -2.2900     1.8370 c3         1 EVC       0.167800
     27 C26          7.8520     2.4430    -0.9140 c3         1 EVC       0.194800
     28 C28         -3.3440    -1.4200     1.5270 c3         1 EVC       0.139400
     29 N2           1.0420    -0.5080     1.0280 nb         1 EVC      -0.824000
     30 N5           3.3020    -1.1040     1.3560 nb         1 EVC      -0.816000
     31 N4           2.7620     0.8790     0.1900 nb         1 EVC      -0.869000
     32 N36         -5.0130     1.8010    -0.3080 nh         1 EVC      -0.623000
     33 N39         -7.7640     2.0510    -0.9930 n3         1 EVC      -0.720600
     34 N30         -5.3740    -2.5580     0.6820 n3         1 EVC      -0.713600
     35 N15          4.9330     0.3100     0.5000 nu         1 EVC      -0.752300
     36 O33         -6.9480    -4.1350    -1.0790 os         1 EVC      -0.402600
     37 O14         -3.8210    -0.1710     1.0690 os         1 EVC      -0.298900
     38 S22          7.1140    -0.0370    -1.5880 sy         1 EVC       1.272200
     39 H1           7.2790    -1.9870     3.6670 ha         1 EVC       0.136000
     40 H2           9.2480    -2.2280     2.1770 ha         1 EVC       0.140000
     41 H3          -3.2030     3.4550    -1.4750 ha         1 EVC       0.135000
     42 H4           5.2790    -0.8100     2.9030 ha         1 EVC       0.155000
     43 H5          -0.7840     3.2810    -1.3470 ha         1 EVC       0.131000
     44 H6           9.1670    -1.2950    -0.1010 ha         1 EVC       0.161000
     45 H7          -1.1530    -0.2500     1.0390 ha         1 EVC       0.173000
     46 H8           1.6880    -2.1860     2.0060 h5         1 EVC       0.049100
     47 H9          -5.3070    -0.2340    -0.7490 h1         1 EVC       0.045450
     48 H10         -5.5640     0.8610    -2.1200 h1         1 EVC       0.045450
     49 H11         -5.4700     3.3580    -1.6840 h1         1 EVC       0.045450
     50 H12         -5.0850     3.8660    -0.0360 h1         1 EVC       0.045450
     51 H13         -7.6860    -0.0040    -1.2990 h1         1 EVC       0.037450
     52 H14         -7.3080     0.4750     0.3580 h1         1 EVC       0.037450
     53 H15         -7.1780     2.9900     0.8190 h1         1 EVC       0.037450
     54 H16         -7.4890     4.0650    -0.5500 h1         1 EVC       0.037450
     55 H18         -6.6380    -3.9750     1.6410 h1         1 EVC       0.040950
     56 H19         -4.5580    -4.4610     0.2170 h1         1 EVC       0.040950
     57 H20         -3.8100    -3.0910    -0.6060 h1         1 EVC       0.040950
     58 H21         -8.5130    -3.6720     0.1200 h1         1 EVC       0.050950
     59 H22         -7.7430    -2.2750    -0.6460 h1         1 EVC       0.050950
     60 H23         -5.7480    -2.7230    -2.0010 h1         1 EVC       0.050950
     61 H24         -5.2420    -4.4160    -2.1330 h1         1 EVC       0.050950
     62 H25          6.4990     3.7720     0.1240 hc         1 EVC       0.045033
     63 H26          8.0870     4.4600    -0.2290 hc         1 EVC       0.045033
     64 H27          6.8990     4.2930    -1.5180 hc         1 EVC       0.045033
     65 H28         -9.6040     3.0380    -1.0010 h1         1 EVC       0.028700
     66 H29         -9.6850     1.3050    -1.3190 h1         1 EVC       0.028700
     67 H30         -9.4290     1.8870     0.3330 h1         1 EVC       0.028700
     68 H31         -4.1730    -3.2150     2.3090 h1         1 EVC       0.043700
     69 H32         -5.1550    -1.7850     2.5900 h1         1 EVC       0.043700
     70 H33          8.6800     2.5060    -1.6240 h1         1 EVC       0.053700
     71 H34          8.2400     2.0000     0.0050 h1         1 EVC       0.053700
     72 H35         -2.7470    -1.3040     2.4390 h1         1 EVC       0.038700
     73 H36         -2.6970    -1.8870     0.7760 h1         1 EVC       0.038700
     74 H40          5.1120     1.0990    -0.1100 hn         1 EVC       0.479800
     75 N7           0.6010     1.4590    -0.1430 nu         1 EVC      -0.721300
     76 N23          6.7800     1.5790    -1.4190 n7         1 EVC      -0.833100
     77 O24          8.4310    -0.2710    -2.1620 o          1 EVC      -0.608800
     78 O25          5.9590    -0.6210    -2.2510 o          1 EVC      -0.608800
     79 H17         -7.1710    -2.2910     1.7040 h1         1 EVC       0.040950
     80 H39          1.0480     2.2330    -0.6110 hn         1 EVC       0.455800
     81 H41          6.3470     1.9330    -2.2700 hn         1 EVC       0.426800
@<TRIPOS>BOND
     1     1     2 ar  
     2     1     4 ar  
     3     1    39 1   
     4     2     6 ar  
     5     2    40 1   
     6     3     5 ar  
     7     3     9 ar  
     8     3    41 1   
     9     4    11 ar  
    10     4    42 1   
    11     5    10 ar  
    12     5    43 1   
    13     6    13 ar  
    14     6    44 1   
    15     7    10 ar  
    16     7    12 ar  
    17     7    45 1   
    18     8    29 ar  
    19     8    30 ar  
    20     8    46 1   
    21     9    12 ar  
    22     9    32 1   
    23    10    75 1   
    24    11    13 ar  
    25    11    35 1   
    26    12    37 1   
    27    13    38 1   
    28    14    29 ar  
    29    14    31 ar  
    30    14    75 1   
    31    15    30 ar  
    32    15    31 ar  
    33    15    35 1   
    34    16    18 1   
    35    16    32 1   
    36    16    47 1   
    37    16    48 1   
    38    17    19 1   
    39    17    32 1   
    40    17    49 1   
    41    17    50 1   
    42    18    33 1   
    43    18    51 1   
    44    18    52 1   
    45    19    33 1   
    46    19    53 1   
    47    19    54 1   
    48    20    22 1   
    49    20    34 1   
    50    20    55 1   
    51    20    79 1   
    52    21    23 1   
    53    21    34 1   
    54    21    56 1   
    55    21    57 1   
    56    22    36 1   
    57    22    58 1   
    58    22    59 1   
    59    23    36 1   
    60    23    60 1   
    61    23    61 1   
    62    24    27 1   
    63    24    62 1   
    64    24    63 1   
    65    24    64 1   
    66    25    33 1   
    67    25    65 1   
    68    25    66 1   
    69    25    67 1   
    70    26    28 1   
    71    26    34 1   
    72    26    68 1   
    73    26    69 1   
    74    27    70 1   
    75    27    71 1   
    76    27    76 1   
    77    28    37 1   
    78    28    72 1   
    79    28    73 1   
    80    35    74 1   
    81    38    76 1   
    82    38    77 2   
    83    38    78 2   
    84    75    80 1   
    85    76    81 1   
@<TRIPOS>SUBSTRUCTURE
     1 EVC         1 TEMP              0 ****  ****    0 ROOT
