@<TRIPOS>MOLECULE
EVD
   20    21     1     0     0
SMALL
No Charge or Current Charge


@<TRIPOS>ATOM
      1 N            2.7620     0.0150    -1.4880 n8         1 EVD      -1.015100
      2 O           -0.1770     1.0220    -0.0800 os         1 EVD      -0.133200
      3 S            2.4060    -0.0480     0.1090 sy         1 EVD       1.186200
      4 O1           2.8290     1.2570     0.6150 o          1 EVD      -0.519500
      5 C2           0.6090    -0.1270     0.0740 cc         1 EVD      -0.208000
      6 O2           2.9570    -1.3160     0.5910 o          1 EVD      -0.519500
      7 C3          -0.2000    -1.2470     0.1690 cd         1 EVD      -0.079200
      8 C4          -2.7730    -1.4950     0.1160 ca         1 EVD      -0.042000
      9 C5          -3.9530    -0.7300    -0.0040 ca         1 EVD      -0.136000
     10 C6          -3.8850     0.6780    -0.1560 ca         1 EVD      -0.071000
     11 C7          -2.6340     1.3350    -0.1890 ca         1 EVD      -0.113000
     12 C8          -1.4770     0.5550    -0.0680 ca         1 EVD       0.086100
     13 C9          -1.5550    -0.8060     0.0790 ca         1 EVD      -0.146800
     14 HN           1.8860     0.3590    -1.8760 hn         1 EVD       0.488000
     15 HNA          3.3690     0.8310    -1.5090 hn         1 EVD       0.488000
     16 H3           0.1430    -2.2740     0.2890 ha         1 EVD       0.234000
     17 H4          -2.8090    -2.5760     0.2330 ha         1 EVD       0.125000
     18 H5          -4.9220    -1.2240     0.0200 ha         1 EVD       0.120000
     19 H6          -4.8010     1.2570    -0.2480 ha         1 EVD       0.120000
     20 H7          -2.5680     2.4140    -0.3060 ha         1 EVD       0.137000
@<TRIPOS>BOND
     1     1     3 1   
     2     1    14 1   
     3     1    15 1   
     4     2     5 1   
     5     2    12 1   
     6     3     4 2   
     7     3     5 1   
     8     3     6 2   
     9     5     7 2   
    10     7    13 1   
    11     7    16 1   
    12     8     9 ar  
    13     8    13 ar  
    14     8    17 1   
    15     9    10 ar  
    16     9    18 1   
    17    10    11 ar  
    18    10    19 1   
    19    11    12 ar  
    20    11    20 1   
    21    12    13 ar  
@<TRIPOS>SUBSTRUCTURE
     1 EVD         1 TEMP              0 ****  ****    0 ROOT
