@<TRIPOS>MOLECULE
EVD
   20    21     1     0     0
SMALL
abcg2


@<TRIPOS>ATOM
      1 N            2.7950     0.3780    -1.4050 n8         1 EVD      -1.015100
      2 O           -0.1490     0.9140    -0.0780 os         1 EVD      -0.133200
      3 S            2.3230    -0.0430     0.0990 sy         1 EVD       1.186200
      4 O1           2.6410     1.0760     0.9630 o          1 EVD      -0.519500
      5 C2           0.5770    -0.2180     0.0830 cc         1 EVD      -0.208000
      6 O2           2.8380    -1.3710     0.3660 o          1 EVD      -0.519500
      7 C3          -0.1830    -1.3250     0.1970 cd         1 EVD      -0.079200
      8 C4          -2.7940    -1.4610     0.1470 ca         1 EVD      -0.042000
      9 C5          -3.9060    -0.6510     0.0200 ca         1 EVD      -0.136000
     10 C6          -3.7830     0.7360    -0.1490 ca         1 EVD      -0.071000
     11 C7          -2.5470     1.3570    -0.1950 ca         1 EVD      -0.113000
     12 C8          -1.4460     0.5270    -0.0660 ca         1 EVD       0.086100
     13 C9          -1.5360    -0.8560     0.1030 ca         1 EVD      -0.146800
     14 HN           2.5930    -0.3080    -2.1230 hn         1 EVD       0.488000
     15 HNA          2.5390     1.3190    -1.6830 hn         1 EVD       0.488000
     16 H3           0.1600    -2.3370     0.3320 ha         1 EVD       0.234000
     17 H4          -2.8940    -2.5300     0.2760 ha         1 EVD       0.125000
     18 H5          -4.8940    -1.0910     0.0510 ha         1 EVD       0.120000
     19 H6          -4.6770     1.3380    -0.2460 ha         1 EVD       0.120000
     20 H7          -2.4480     2.4260    -0.3220 ha         1 EVD       0.137000
@<TRIPOS>BOND
     1     1     3 1   
     2     1    14 1   
     3     1    15 1   
     4     2     5 1   
     5     2    12 1   
     6     3     4 2   
     7     3     5 1   
     8     3     6 2   
     9     5     7 2   
    10     7    13 1   
    11     7    16 1   
    12     8     9 ar  
    13     8    13 ar  
    14     8    17 1   
    15     9    10 ar  
    16     9    18 1   
    17    10    11 ar  
    18    10    19 1   
    19    11    12 ar  
    20    11    20 1   
    21    12    13 ar  
@<TRIPOS>SUBSTRUCTURE
     1 EVD         1 TEMP              0 ****  ****    0 ROOT
