@<TRIPOS>MOLECULE
EVE
   20    21     1     0     0
SMALL
No Charge or Current Charge


@<TRIPOS>ATOM
      1 N            2.7760    -0.0600    -1.6130 n8         1 EVE      -1.018100
      2 S            2.3510    -0.0810    -0.0220 sy         1 EVE       1.117400
      3 N1          -0.3180    -1.1000    -0.0310 na         1 EVE      -0.266600
      4 O1           2.9630     1.1430     0.5020 o          1 EVE      -0.533000
      5 C2           0.5050     0.0360    -0.0080 cc         1 EVE       0.236200
      6 N2          -0.2450     1.1700     0.0170 nd         1 EVE      -0.466100
      7 O2           2.7790    -1.4100     0.4210 o          1 EVE      -0.533000
      8 C4          -2.8060    -1.3800    -0.0290 ca         1 EVE      -0.123000
      9 C5          -4.0080    -0.6420    -0.0090 ca         1 EVE      -0.075000
     10 C6          -3.9750     0.7730     0.0200 ca         1 EVE      -0.141000
     11 C7          -2.7400     1.4610     0.0310 ca         1 EVE      -0.031000
     12 C8          -1.5580     0.7060     0.0110 ca         1 EVE       0.045400
     13 C9          -1.6060    -0.6590    -0.0180 ca         1 EVE      -0.057200
     14 HN           3.3330     0.7920    -1.6420 hn         1 EVE       0.487500
     15 HNA          3.4940    -0.7820    -1.6250 hn         1 EVE       0.487500
     16 H4          -2.8130    -2.4670    -0.0520 ha         1 EVE       0.122000
     17 H5          -4.9640    -1.1630    -0.0170 ha         1 EVE       0.115000
     18 H6          -4.9050     1.3360     0.0350 ha         1 EVE       0.118000
     19 H7          -2.7040     2.5470     0.0540 ha         1 EVE       0.133000
     20 HN1         -0.0020    -2.0630    -0.0540 hn         1 EVE       0.381000
@<TRIPOS>BOND
     1     1     2 1   
     2     1    14 1   
     3     1    15 1   
     4     2     4 2   
     5     2     5 1   
     6     2     7 2   
     7     3     5 1   
     8     3    13 1   
     9     3    20 1   
    10     5     6 2   
    11     6    12 1   
    12     8     9 ar  
    13     8    13 ar  
    14     8    16 1   
    15     9    10 ar  
    16     9    17 1   
    17    10    11 ar  
    18    10    18 1   
    19    11    12 ar  
    20    11    19 1   
    21    12    13 ar  
@<TRIPOS>SUBSTRUCTURE
     1 EVE         1 TEMP              0 ****  ****    0 ROOT
