@<TRIPOS>MOLECULE
EVE
   20    21     1     0     0
SMALL
abcg2


@<TRIPOS>ATOM
      1 N            2.6860     0.3470    -1.4720 n8         1 EVE      -1.018100
      2 S            2.2850    -0.1240     0.0420 sy         1 EVE       1.117400
      3 N1          -0.2460    -1.1510     0.0790 na         1 EVE      -0.266600
      4 O1           2.7680     0.9020     0.9440 o          1 EVE      -0.533000
      5 C2           0.5160    -0.0380    -0.0110 cc         1 EVE       0.236200
      6 N2          -0.1520     1.0680    -0.1080 nd         1 EVE      -0.466100
      7 O2           2.5830    -1.5220     0.3070 o          1 EVE      -0.533000
      8 C4          -2.7580    -1.4080     0.0940 ca         1 EVE      -0.123000
      9 C5          -3.8990    -0.6350     0.0250 ca         1 EVE      -0.075000
     10 C6          -3.8390     0.7660    -0.0960 ca         1 EVE      -0.141000
     11 C7          -2.6350     1.4350    -0.1490 ca         1 EVE      -0.031000
     12 C8          -1.4660     0.6720    -0.0800 ca         1 EVE       0.045400
     13 C9          -1.5440    -0.7270     0.0380 ca         1 EVE      -0.057200
     14 HN           3.5790     0.8270    -1.5090 hn         1 EVE       0.487500
     15 HNA          2.6240    -0.3910    -2.1640 hn         1 EVE       0.487500
     16 H4          -2.8060    -2.4850     0.1850 ha         1 EVE       0.122000
     17 H5          -4.8660    -1.1180     0.0660 ha         1 EVE       0.115000
     18 H6          -4.7630     1.3270    -0.1490 ha         1 EVE       0.118000
     19 H7          -2.5900     2.5130    -0.2410 ha         1 EVE       0.133000
     20 HN1          0.0820    -2.1010     0.1700 hn         1 EVE       0.381000
@<TRIPOS>BOND
     1     1     2 1   
     2     1    14 1   
     3     1    15 1   
     4     2     4 2   
     5     2     5 1   
     6     2     7 2   
     7     3     5 1   
     8     3    13 1   
     9     3    20 1   
    10     5     6 2   
    11     6    12 1   
    12     8     9 ar  
    13     8    13 ar  
    14     8    16 1   
    15     9    10 ar  
    16     9    17 1   
    17    10    11 ar  
    18    10    18 1   
    19    11    12 ar  
    20    11    19 1   
    21    12    13 ar  
@<TRIPOS>SUBSTRUCTURE
     1 EVE         1 TEMP              0 ****  ****    0 ROOT
