@<TRIPOS>MOLECULE
EVF
   19    20     1     0     0
SMALL
bcc


@<TRIPOS>ATOM
      1 N            2.7680     1.3390     0.7680 n8         1 EVF      -0.955700
      2 S            2.3490     0.2780    -0.3890 sy         1 EVF       1.279000
      3 O1           2.8060    -1.0490    -0.0190 o          1 EVF      -0.600800
      4 S1          -0.1270    -1.2200     0.4840 ss         1 EVF       0.029900
      5 C2           0.5790     0.1830    -0.2420 cc         1 EVF       0.178600
      6 O2           2.6380     0.8550    -1.6850 o          1 EVF      -0.600800
      7 N3          -0.2050     1.1080    -0.6450 nd         1 EVF      -0.420100
      8 C4          -2.6290     1.5380    -0.7010 ca         1 EVF      -0.055000
      9 C5          -3.8780     1.0480    -0.3840 ca         1 EVF      -0.137000
     10 C6          -4.0290    -0.2020     0.2340 ca         1 EVF      -0.101000
     11 C7          -2.9340    -0.9850     0.5490 ca         1 EVF      -0.102000
     12 C8          -1.6740    -0.4880     0.2310 ca         1 EVF      -0.049100
     13 C9          -1.5100     0.7620    -0.3920 ca         1 EVF       0.065400
     14 HN           3.2230     0.9490     1.5840 hn         1 EVF       0.447800
     15 HNA          3.1550     2.2160     0.4450 hn         1 EVF       0.447800
     16 H4          -2.5040     2.5000    -1.1800 ha         1 EVF       0.153000
     17 H5          -4.7570     1.6340    -0.6140 ha         1 EVF       0.139000
     18 H6          -5.0210    -0.5620     0.4680 ha         1 EVF       0.136000
     19 H7          -3.0570    -1.9470     1.0260 ha         1 EVF       0.145000
@<TRIPOS>BOND
     1     1     2 1   
     2     1    14 1   
     3     1    15 1   
     4     2     3 2   
     5     2     5 1   
     6     2     6 2   
     7     4     5 1   
     8     4    12 1   
     9     5     7 2   
    10     7    13 1   
    11     8     9 ar  
    12     8    13 ar  
    13     8    16 1   
    14     9    10 ar  
    15     9    17 1   
    16    10    11 ar  
    17    10    18 1   
    18    11    12 ar  
    19    11    19 1   
    20    12    13 ar  
@<TRIPOS>SUBSTRUCTURE
     1 EVF         1 TEMP              0 ****  ****    0 ROOT
