@<TRIPOS>MOLECULE
EVF
   19    20     1     0     0
SMALL
No Charge or Current Charge


@<TRIPOS>ATOM
      1 N            2.8520     1.2110     0.9720 n8         1 EVF      -1.066100
      2 S            2.3690     0.3450    -0.3400 sy         1 EVF       1.137400
      3 O1           2.9700    -0.9690    -0.1100 o          1 EVF      -0.530000
      4 S1          -0.1590    -1.1480     0.6130 ss         1 EVF       0.156800
      5 C2           0.5500     0.2540    -0.2150 cc         1 EVF       0.178600
      6 O2           2.7790     1.1960    -1.4580 o          1 EVF      -0.530000
      7 N3          -0.2910     1.1890    -0.7120 nd         1 EVF      -0.420100
      8 C4          -2.7340     1.5030    -0.7920 ca         1 EVF      -0.037000
      9 C5          -4.0070     0.9990    -0.4550 ca         1 EVF      -0.119000
     10 C6          -4.1250    -0.2210     0.2440 ca         1 EVF      -0.083000
     11 C7          -2.9690    -0.9390     0.6060 ca         1 EVF      -0.084000
     12 C8          -1.7140    -0.4130     0.2570 ca         1 EVF      -0.176000
     13 C9          -1.5870     0.7790    -0.4260 ca         1 EVF       0.065400
     14 HN           3.6580     0.6620     1.2650 hn         1 EVF       0.503000
     15 HNA          3.2970     2.0000     0.5050 hn         1 EVF       0.503000
     16 H4          -2.6390     2.4430    -1.3310 ha         1 EVF       0.135000
     17 H5          -4.9000     1.5530    -0.7340 ha         1 EVF       0.121000
     18 H6          -5.1080    -0.6070     0.5030 ha         1 EVF       0.118000
     19 H7          -3.0490    -1.8810     1.1450 ha         1 EVF       0.127000
@<TRIPOS>BOND
     1     1     2 1   
     2     1    14 1   
     3     1    15 1   
     4     2     3 2   
     5     2     5 1   
     6     2     6 2   
     7     4     5 1   
     8     4    12 1   
     9     5     7 2   
    10     7    13 1   
    11     8     9 ar  
    12     8    13 ar  
    13     8    16 1   
    14     9    10 ar  
    15     9    17 1   
    16    10    11 ar  
    17    10    18 1   
    18    11    12 ar  
    19    11    19 1   
    20    12    13 ar  
@<TRIPOS>SUBSTRUCTURE
     1 EVF         1 TEMP              0 ****  ****    0 ROOT
