@<TRIPOS>MOLECULE
EVG
   14    14     1     0     0
SMALL
abcg2


@<TRIPOS>ATOM
      1 O            1.2860     0.9320     0.2840 os         1 EVG      -0.172000
      2 S           -1.1640    -0.0280    -0.0990 sy         1 EVG       1.117200
      3 O1          -1.6280    -1.3460    -0.4950 o          1 EVG      -0.536000
      4 C2           0.5710    -0.1700    -0.0020 cc         1 EVG      -0.102100
      5 O2          -1.5170     1.1250    -0.9080 o          1 EVG      -0.536000
      6 C3           1.3750    -1.2400    -0.2070 cd         1 EVG      -0.046000
      7 C4           2.7000    -0.7520    -0.0310 cd         1 EVG      -0.213000
      8 C5           2.5800     0.5660     0.2640 cc         1 EVG       0.171900
      9 NH          -1.5540     0.3700     1.4470 n8         1 EVG      -1.015100
     10 H3           1.0700    -2.2440    -0.4510 ha         1 EVG       0.162000
     11 H4           3.6170    -1.3100    -0.1160 ha         1 EVG       0.149000
     12 H5           3.3020     1.3380     0.4750 h4         1 EVG       0.059100
     13 HNH         -1.5260    -0.4170     2.0860 hn         1 EVG       0.480000
     14 HNHA        -2.4430     0.8570     1.5050 hn         1 EVG       0.480000
@<TRIPOS>BOND
     1     1     4 1   
     2     1     8 1   
     3     2     3 2   
     4     2     4 1   
     5     2     5 2   
     6     2     9 1   
     7     4     6 2   
     8     6     7 1   
     9     6    10 1   
    10     7     8 2   
    11     7    11 1   
    12     8    12 1   
    13     9    13 1   
    14     9    14 1   
@<TRIPOS>SUBSTRUCTURE
     1 EVG         1 TEMP              0 ****  ****    0 ROOT
