@<TRIPOS>MOLECULE
EVG
   14    14     1     0     0
SMALL
No Charge or Current Charge


@<TRIPOS>ATOM
      1 O            1.4130     1.0530     0.0170 os         1 EVG      -0.172000
      2 S           -1.1740    -0.0160    -0.0440 sy         1 EVG       1.117200
      3 O1          -1.7240    -1.2830    -0.5230 o          1 EVG      -0.536000
      4 C2           0.6290    -0.0870    -0.0080 cc         1 EVG      -0.102100
      5 O2          -1.6320     1.2780    -0.5480 o          1 EVG      -0.536000
      6 C3           1.4330    -1.1970     0.0040 cd         1 EVG      -0.046000
      7 C4           2.7660    -0.7350     0.0360 cd         1 EVG      -0.213000
      8 C5           2.7250     0.6330     0.0430 cc         1 EVG       0.171900
      9 NH          -1.5880     0.0170     1.5400 n8         1 EVG      -1.015100
     10 H3           1.1010    -2.2320    -0.0080 ha         1 EVG       0.162000
     11 H4           3.6620    -1.3450     0.0520 ha         1 EVG       0.149000
     12 H5           3.5010     1.3860     0.0650 h4         1 EVG       0.059100
     13 HNH         -2.3310    -0.6790     1.5530 hn         1 EVG       0.480000
     14 HNHA        -2.1130     0.8880     1.5730 hn         1 EVG       0.480000
@<TRIPOS>BOND
     1     1     4 1   
     2     1     8 1   
     3     2     3 2   
     4     2     4 1   
     5     2     5 2   
     6     2     9 1   
     7     4     6 2   
     8     6     7 1   
     9     6    10 1   
    10     7     8 2   
    11     7    11 1   
    12     8    12 1   
    13     9    13 1   
    14     9    14 1   
@<TRIPOS>SUBSTRUCTURE
     1 EVG         1 TEMP              0 ****  ****    0 ROOT
