@<TRIPOS>MOLECULE
EVH
   14    14     1     0     0
SMALL
No Charge or Current Charge


@<TRIPOS>ATOM
      1 S            1.2840     0.0190    -0.3010 sy         1 EVH       1.117200
      2 N1          -1.3580     0.8610     0.3260 na         1 EVH      -0.234500
      3 O1           1.6890     1.3010     0.2800 o          1 EVH      -0.521000
      4 C2          -0.5610    -0.1240    -0.2300 cc         1 EVH       0.154400
      5 O2           1.7870    -0.4500    -1.5960 o          1 EVH      -0.521000
      6 N3          -1.3170    -1.1520    -0.6250 nd         1 EVH      -0.587000
      7 C4          -2.6210    -0.8030    -0.3360 cd         1 EVH       0.220900
      8 C5          -2.6700     0.4350     0.2520 cc         1 EVH      -0.189000
      9 NH           1.8190    -1.1040     0.7870 n8         1 EVH      -1.003100
     10 H4          -3.4500    -1.4630    -0.5630 h4         1 EVH       0.047100
     11 H5          -3.5120     1.0160     0.6090 h4         1 EVH       0.165000
     12 HNH          2.2310    -0.5080     1.5020 hn         1 EVH       0.487000
     13 HNHA         0.9550    -1.4340     1.2150 hn         1 EVH       0.487000
     14 HN1         -1.0240     1.7400     0.7120 hn         1 EVH       0.379000
@<TRIPOS>BOND
     1     1     3 2   
     2     1     4 1   
     3     1     5 2   
     4     1     9 1   
     5     2     4 1   
     6     2     8 1   
     7     2    14 1   
     8     4     6 2   
     9     6     7 1   
    10     7     8 2   
    11     7    10 1   
    12     8    11 1   
    13     9    12 1   
    14     9    13 1   
@<TRIPOS>SUBSTRUCTURE
     1 EVH         1 TEMP              0 ****  ****    0 ROOT
