@<TRIPOS>MOLECULE
EVH
   14    14     1     0     0
SMALL
bcc


@<TRIPOS>ATOM
      1 S            1.1940     0.0270    -0.2850 sy         1 EVH       1.258800
      2 N1          -1.3230     0.9200     0.3150 na         1 EVH      -0.234900
      3 O1           1.5340     1.3970     0.0540 o          1 EVH      -0.591800
      4 C2          -0.5600    -0.0690    -0.1900 cc         1 EVH       0.154400
      5 O2           1.5900    -0.5550    -1.5510 o          1 EVH      -0.591800
      6 N3          -1.2650    -1.1070    -0.5510 nd         1 EVH      -0.587000
      7 C4          -2.5520    -0.7710    -0.2730 cd         1 EVH       0.286200
      8 C5          -2.6080     0.4900     0.2660 cc         1 EVH      -0.221600
      9 NH           1.8140    -0.9280     0.8870 n8         1 EVH      -0.892700
     10 H4          -3.3730    -1.4420    -0.4730 h4         1 EVH       0.047100
     11 H5          -3.4310     1.0980     0.5990 h4         1 EVH       0.183000
     12 HNH          1.5950    -0.6290     1.8300 hn         1 EVH       0.431800
     13 HNHA         1.6430    -1.9180     0.7520 hn         1 EVH       0.431800
     14 HN1         -1.0060     1.8190     0.6500 hn         1 EVH       0.328700
@<TRIPOS>BOND
     1     1     3 2   
     2     1     4 1   
     3     1     5 2   
     4     1     9 1   
     5     2     4 1   
     6     2     8 1   
     7     2    14 1   
     8     4     6 2   
     9     6     7 1   
    10     7     8 2   
    11     7    10 1   
    12     8    11 1   
    13     9    12 1   
    14     9    13 1   
@<TRIPOS>SUBSTRUCTURE
     1 EVH         1 TEMP              0 ****  ****    0 ROOT
