@<TRIPOS>MOLECULE
EVI
   13    13     1     0     0
SMALL
bcc


@<TRIPOS>ATOM
      1 S            1.3140     0.0710    -0.3100 sy         1 EVI       1.249800
      2 O1           1.6310     0.2420    -1.7130 o          1 EVI      -0.601300
      3 S1          -1.3260    -0.6490     0.9680 ss         1 EVI      -0.007300
      4 C2          -0.4320     0.2970    -0.1450 cc         1 EVI       0.195300
      5 O2           1.6230    -1.1710     0.3780 o          1 EVI      -0.601300
      6 N3          -1.1020     1.1690    -0.8180 nd         1 EVI      -0.540000
      7 C4          -2.4150     1.1260    -0.4610 cd         1 EVI       0.324200
      8 C5          -2.7260     0.2030     0.4910 cc         1 EVI      -0.196400
      9 NH           1.8980     1.2890     0.6190 n8         1 EVI      -0.915700
     10 H4          -3.1230     1.7920    -0.9310 h4         1 EVI       0.047100
     11 H5          -3.6920    -0.0160     0.9180 h4         1 EVI       0.182000
     12 HNH          2.0040     2.1670     0.1230 hn         1 EVI       0.432300
     13 HNHA         2.7480     1.0320     1.1100 hn         1 EVI       0.432300
@<TRIPOS>BOND
     1     1     2 2   
     2     1     4 1   
     3     1     5 2   
     4     1     9 1   
     5     3     4 1   
     6     3     8 1   
     7     4     6 2   
     8     6     7 1   
     9     7     8 2   
    10     7    10 1   
    11     8    11 1   
    12     9    12 1   
    13     9    13 1   
@<TRIPOS>SUBSTRUCTURE
     1 EVI         1 TEMP              0 ****  ****    0 ROOT
