@<TRIPOS>MOLECULE
EVI
   13    13     1     0     0
SMALL
No Charge or Current Charge


@<TRIPOS>ATOM
      1 S            1.3200     0.1590    -0.2850 sy         1 EVI       1.108200
      2 O1           1.7890     0.5400    -1.6180 o          1 EVI      -0.530500
      3 S1          -1.3580    -0.5820     1.0450 ss         1 EVI       0.137600
      4 C2          -0.4980     0.3610    -0.1430 cc         1 EVI       0.195300
      5 O2           1.7540    -1.0820     0.3590 o          1 EVI      -0.530500
      6 N3          -1.2480     1.1920    -0.8810 nd         1 EVI      -0.540000
      7 C4          -2.5790     1.0890    -0.5030 cd         1 EVI       0.258900
      8 C5          -2.8220     0.1910     0.5080 cc         1 EVI      -0.258000
      9 NH           1.9600     1.3320     0.6790 n8         1 EVI      -1.026100
     10 H4          -3.3250     1.6950    -1.0010 h4         1 EVI       0.047100
     11 H5          -3.7650    -0.0640     0.9710 h4         1 EVI       0.164000
     12 HNH          2.4460     1.8960    -0.0160 hn         1 EVI       0.487500
     13 HNHA         2.7280     0.8240     1.1140 hn         1 EVI       0.487500
@<TRIPOS>BOND
     1     1     2 2   
     2     1     4 1   
     3     1     5 2   
     4     1     9 1   
     5     3     4 1   
     6     3     8 1   
     7     4     6 2   
     8     6     7 1   
     9     7     8 2   
    10     7    10 1   
    11     8    11 1   
    12     9    12 1   
    13     9    13 1   
@<TRIPOS>SUBSTRUCTURE
     1 EVI         1 TEMP              0 ****  ****    0 ROOT
