@<TRIPOS>MOLECULE
EVJ
   14    14     1     0     0
SMALL
bcc


@<TRIPOS>ATOM
      1 S           -1.3310    -0.1060     0.0800 sy         1 EVJ       1.319200
      2 O1          -1.9860     0.8550     0.9510 o          1 EVJ      -0.616300
      3 S1           1.4960    -1.0780     0.2140 ss         1 EVJ       0.064200
      4 C2           0.3830     0.2100     0.0140 cc         1 EVJ      -0.318600
      5 O2          -1.4550    -1.5260     0.3820 o          1 EVJ      -0.616300
      6 C3           0.9980     1.4180    -0.1440 cd         1 EVJ       0.005000
      7 C4           2.4060     1.2930    -0.1080 cd         1 EVJ      -0.177000
      8 C5           2.8090     0.0010     0.0790 cc         1 EVJ      -0.096100
      9 NH          -1.8010     0.2820    -1.4500 n8         1 EVJ      -0.897700
     10 H3           0.4710     2.3510    -0.2850 ha         1 EVJ       0.167000
     11 H4           3.0890     2.1220    -0.2140 ha         1 EVJ       0.158000
     12 H5           3.8210    -0.3700     0.1450 h4         1 EVJ       0.170000
     13 HNH         -1.5140    -0.4040    -2.1400 hn         1 EVJ       0.419300
     14 HNHA        -2.8020     0.4440    -1.5050 hn         1 EVJ       0.419300
@<TRIPOS>BOND
     1     1     2 2   
     2     1     4 1   
     3     1     5 2   
     4     1     9 1   
     5     3     4 1   
     6     3     8 1   
     7     4     6 2   
     8     6     7 1   
     9     6    10 1   
    10     7     8 2   
    11     7    11 1   
    12     8    12 1   
    13     9    13 1   
    14     9    14 1   
@<TRIPOS>SUBSTRUCTURE
     1 EVJ         1 TEMP              0 ****  ****    0 ROOT
