@<TRIPOS>MOLECULE
EVJ
   14    14     1     0     0
SMALL
No Charge or Current Charge


@<TRIPOS>ATOM
      1 S           -1.4670     0.0830     0.1570 sy         1 EVJ       1.177600
      2 O1          -2.0330     1.2240     0.8740 o          1 EVJ      -0.545500
      3 S1           1.3380    -1.1400     0.0580 ss         1 EVJ       0.354000
      4 C2           0.2780     0.2570     0.0250 cc         1 EVJ      -0.463500
      5 O2          -1.7990    -1.3080     0.4500 o          1 EVJ      -0.545500
      6 C3           0.9820     1.4320    -0.0640 cd         1 EVJ       0.023000
      7 C4           2.3860     1.2280    -0.1320 cd         1 EVJ      -0.159000
      8 C5           2.7500    -0.0960    -0.0860 cc         1 EVJ      -0.223000
      9 NH          -1.8810     0.2910    -1.4030 n8         1 EVJ      -1.008100
     10 H3           0.5190     2.4160    -0.0810 ha         1 EVJ       0.149000
     11 H4           3.1010     2.0410    -0.2120 ha         1 EVJ       0.140000
     12 H5           3.7370    -0.5390    -0.1190 h4         1 EVJ       0.152000
     13 HNH         -0.9780     0.1960    -1.8580 hn         1 EVJ       0.474500
     14 HNHA        -2.3480    -0.5930    -1.5900 hn         1 EVJ       0.474500
@<TRIPOS>BOND
     1     1     2 2   
     2     1     4 1   
     3     1     5 2   
     4     1     9 1   
     5     3     4 1   
     6     3     8 1   
     7     4     6 2   
     8     6     7 1   
     9     6    10 1   
    10     7     8 2   
    11     7    11 1   
    12     8    12 1   
    13     9    13 1   
    14     9    14 1   
@<TRIPOS>SUBSTRUCTURE
     1 EVJ         1 TEMP              0 ****  ****    0 ROOT
