@<TRIPOS>MOLECULE
EVL
   80    84     1     0     0
SMALL
No Charge or Current Charge


@<TRIPOS>ATOM
      1 C1          -8.2390     2.5270     2.0560 ca         1 EVL      -0.041000
      2 C2          -9.3830     2.0020     1.4400 ca         1 EVL      -0.147000
      3 C24          2.4360     0.2160     0.7550 ca         1 EVL      -0.102000
      4 C6          -6.9760     1.9980     1.7450 ca         1 EVL      -0.128000
      5 C25          1.0340     0.2840     0.7980 ca         1 EVL      -0.146000
      6 C3          -9.2640     0.9520     0.5160 ca         1 EVL      -0.007000
      7 C21          0.8830    -1.6250    -0.6840 ca         1 EVL      -0.247000
      8 C18         -2.7500     2.5070     0.6330 ca         1 EVL       0.205900
      9 C23          3.0890    -0.7700    -0.0120 ca         1 EVL       0.213000
     10 C20          0.2530    -0.6280     0.0690 ca         1 EVL       0.328000
     11 C5          -6.8380     0.9530     0.8100 ca         1 EVL       0.412000
     12 C22          2.2950    -1.7060    -0.7390 ca         1 EVL       0.160100
     13 C4          -7.9930     0.4230     0.2000 ca         1 EVL      -0.308500
     14 C15         -2.1030     0.3570     0.3240 ca         1 EVL       0.435900
     15 C13         -4.2900     0.8490     0.5550 ca         1 EVL       0.442900
     16 C28          6.5960    -1.2720    -1.3500 c6         1 EVL      -0.076400
     17 C30          6.6780    -1.2340     1.1380 c6         1 EVL      -0.076400
     18 C27          5.2340    -0.5370    -1.3180 c6         1 EVL       0.194300
     19 C31          5.3150    -0.5010     1.1750 c6         1 EVL       0.194300
     20 C33          8.7700     0.9580     1.0130 c6         1 EVL       0.167800
     21 C37          8.6870     0.9220    -1.4310 c6         1 EVL       0.167800
     22 C34          9.2620     2.4410     0.9700 c6         1 EVL       0.161300
     23 C36          9.1790     2.4050    -1.4650 c6         1 EVL       0.161300
     24 C29          7.4900    -0.8660    -0.1400 c6         1 EVL       0.187500
     25 C41         -6.3710    -3.5600     1.5610 c3         1 EVL      -0.095100
     26 C38         10.5040     4.1500    -0.3170 c3         1 EVL       0.153100
     27 C40          2.2060    -3.6810    -2.2390 c3         1 EVL       0.144900
     28 C10         -7.3830    -2.5290     1.0420 c3         1 EVL       0.195800
     29 N14         -1.7320     1.6440     0.4470 nb         1 EVL      -0.291000
     30 N17         -4.0520     2.1650     0.6920 nb         1 EVL      -0.291000
     31 N16         -3.3630    -0.0960     0.3540 nb         1 EVL      -0.342000
     32 N26          4.5120    -0.8080    -0.0430 nh         1 EVL      -0.758400
     33 N32          7.9320     0.5770    -0.1770 n3         1 EVL      -0.729600
     34 N35         10.0140     2.7560    -0.2800 n3         1 EVL      -0.714600
     35 N7          -5.5890     0.3920     0.5610 nu         1 EVL      -0.947900
     36 O39          2.9270    -2.6970    -1.4780 os         1 EVL      -0.323100
     37 S8          -7.8940    -0.8850    -1.0220 sy         1 EVL       1.129600
     38 H1          -8.3300     3.3330     2.7810 ha         1 EVL       0.119000
     39 H2         -10.3640     2.4070     1.6790 ha         1 EVL       0.122000
     40 H3           3.0160     0.9420     1.3180 ha         1 EVL       0.120000
     41 H4          -6.1060     2.3910     2.2590 ha         1 EVL       0.137000
     42 H5           0.5640     1.0420     1.4160 ha         1 EVL       0.152000
     43 H6         -10.1640     0.5600     0.0440 ha         1 EVL       0.142000
     44 H7           0.2650    -2.3300    -1.2290 ha         1 EVL       0.114000
     45 H8          -2.5030     3.5620     0.7390 h5         1 EVL       0.050100
     46 H9           6.4110    -2.3540    -1.3130 hc         1 EVL       0.047950
     47 H10          7.0980    -1.1060    -2.3090 hc         1 EVL       0.047950
     48 H11          7.2430    -1.0390     2.0570 hc         1 EVL       0.047950
     49 H12          6.4950    -2.3170     1.1470 hc         1 EVL       0.047950
     50 H13          5.3990     0.5450    -1.4330 h1         1 EVL       0.040200
     51 H14          4.6350    -0.8660    -2.1800 h1         1 EVL       0.040200
     52 H15          4.7710    -0.8190     2.0770 h1         1 EVL       0.040200
     53 H16          5.4830     0.5840     1.2560 h1         1 EVL       0.040200
     54 H17          9.6490     0.3000     1.0830 h1         1 EVL       0.036700
     55 H18          8.2040     0.8430     1.9470 h1         1 EVL       0.036700
     56 H19          8.0590     0.7790    -2.3200 h1         1 EVL       0.036700
     57 H20          9.5600     0.2610    -1.5400 h1         1 EVL       0.036700
     58 H21          8.3860     3.1010     1.0600 h1         1 EVL       0.036450
     59 H22          9.8950     2.6260     1.8500 h1         1 EVL       0.036450
     60 H23          9.7510     2.5630    -2.3920 h1         1 EVL       0.036450
     61 H24          8.2990     3.0630    -1.5160 h1         1 EVL       0.036450
     62 H25          8.3850    -1.5060    -0.1600 h1         1 EVL       0.024700
     63 H26         -5.3810    -3.1030     1.6780 hc         1 EVL       0.044700
     64 H27         -6.6890    -3.9450     2.5360 hc         1 EVL       0.044700
     65 H28         -6.2850    -4.4060     0.8690 hc         1 EVL       0.044700
     66 H29         11.1500     4.3570     0.5470 h1         1 EVL       0.030033
     67 H30         11.0890     4.3300    -1.2290 h1         1 EVL       0.030033
     68 H31          9.6670     4.8610    -0.2990 h1         1 EVL       0.030033
     69 H32          1.5620    -4.2840    -1.5860 h1         1 EVL       0.038700
     70 H33          1.5850    -3.2020    -3.0070 h1         1 EVL       0.038700
     71 H34          2.9070    -4.3580    -2.7430 h1         1 EVL       0.038700
     72 H35         -8.3700    -3.0060     0.9570 h1         1 EVL       0.053700
     73 H36         -7.4660    -1.7210     1.7820 h1         1 EVL       0.053700
     74 H39         -1.5620    -1.4890    -0.2030 hn         1 EVL       0.509000
     75 H40         -5.6680    -0.5730     0.2250 hn         1 EVL       0.533000
     76 H41         -6.9560    -2.7740    -0.9390 hn         1 EVL       0.481000
     77 N19         -1.1420    -0.6100     0.0910 nu         1 EVL      -0.915900
     78 N9          -6.9280    -2.0130    -0.2590 n7         1 EVL      -0.888300
     79 O11         -9.2000    -1.5160    -1.2170 o          1 EVL      -0.538000
     80 O12         -7.0830    -0.4120    -2.1450 o          1 EVL      -0.538000
@<TRIPOS>BOND
     1     1     2 ar  
     2     1     4 ar  
     3     1    38 1   
     4     2     6 ar  
     5     2    39 1   
     6     3     5 ar  
     7     3     9 ar  
     8     3    40 1   
     9     4    11 ar  
    10     4    41 1   
    11     5    10 ar  
    12     5    42 1   
    13     6    13 ar  
    14     6    43 1   
    15     7    10 ar  
    16     7    12 ar  
    17     7    44 1   
    18     8    29 ar  
    19     8    30 ar  
    20     8    45 1   
    21     9    12 ar  
    22     9    32 1   
    23    10    77 1   
    24    11    13 ar  
    25    11    35 1   
    26    12    36 1   
    27    13    37 1   
    28    14    29 ar  
    29    14    31 ar  
    30    14    77 1   
    31    15    30 ar  
    32    15    31 ar  
    33    15    35 1   
    34    16    18 1   
    35    16    24 1   
    36    16    46 1   
    37    16    47 1   
    38    17    19 1   
    39    17    24 1   
    40    17    48 1   
    41    17    49 1   
    42    18    32 1   
    43    18    50 1   
    44    18    51 1   
    45    19    32 1   
    46    19    52 1   
    47    19    53 1   
    48    20    22 1   
    49    20    33 1   
    50    20    54 1   
    51    20    55 1   
    52    21    23 1   
    53    21    33 1   
    54    21    56 1   
    55    21    57 1   
    56    22    34 1   
    57    22    58 1   
    58    22    59 1   
    59    23    34 1   
    60    23    60 1   
    61    23    61 1   
    62    24    33 1   
    63    24    62 1   
    64    25    28 1   
    65    25    63 1   
    66    25    64 1   
    67    25    65 1   
    68    26    34 1   
    69    26    66 1   
    70    26    67 1   
    71    26    68 1   
    72    27    36 1   
    73    27    69 1   
    74    27    70 1   
    75    27    71 1   
    76    28    72 1   
    77    28    73 1   
    78    28    78 1   
    79    35    75 1   
    80    37    78 1   
    81    37    79 2   
    82    37    80 2   
    83    74    77 1   
    84    76    78 1   
@<TRIPOS>SUBSTRUCTURE
     1 EVL         1 TEMP              0 ****  ****    0 ROOT
