@<TRIPOS>MOLECULE
EVL
   80    84     1     0     0
SMALL
abcg2


@<TRIPOS>ATOM
      1 C1          -7.4990     2.5340     2.3490 ca         1 EVL      -0.041000
      2 C2          -8.5070     2.5510     1.3950 ca         1 EVL      -0.147000
      3 C24          2.8370    -0.1750     1.0800 ca         1 EVL      -0.102000
      4 C6          -6.3670     1.7560     2.1740 ca         1 EVL      -0.128000
      5 C25          1.4520    -0.0560     1.1590 ca         1 EVL      -0.146000
      6 C3          -8.3700     1.7880     0.2490 ca         1 EVL      -0.007000
      7 C21          1.2710    -2.1960     0.0840 ca         1 EVL      -0.247000
      8 C18         -2.2060     1.9300     1.6300 ca         1 EVL       0.205900
      9 C23          3.4740    -1.2740     0.5260 ca         1 EVL       0.213000
     10 C20          0.6560    -1.0660     0.6400 ca         1 EVL       0.328000
     11 C5          -6.2050     0.9930     1.0200 ca         1 EVL       0.412000
     12 C22          2.6510    -2.3130     0.0380 ca         1 EVL       0.160100
     13 C4          -7.2250     1.0240     0.0570 ca         1 EVL      -0.308500
     14 C15         -1.6390    -0.1140     0.9400 ca         1 EVL       0.435900
     15 C13         -3.7980     0.4920     1.0410 ca         1 EVL       0.442900
     16 C28          6.8740    -1.6050    -0.9650 c6         1 EVL      -0.076400
     17 C30          7.1000    -1.0640     1.4000 c6         1 EVL      -0.076400
     18 C27          5.4020    -1.2320    -0.9050 c6         1 EVL       0.194300
     19 C31          5.6320    -0.6690     1.4460 c6         1 EVL       0.194300
     20 C33          8.4980     1.4300     0.6160 c6         1 EVL       0.167800
     21 C37          8.0190     0.9730    -1.6540 c6         1 EVL       0.167800
     22 C34          8.3530     2.9160     0.3510 c6         1 EVL       0.161300
     23 C36          7.8720     2.4600    -1.9160 c6         1 EVL       0.161300
     24 C29          7.7030    -0.7800     0.0210 c6         1 EVL       0.187500
     25 C41         -7.5880    -3.4130     0.1360 c3         1 EVL      -0.095100
     26 C38          8.5890     4.6530    -1.2780 c3         1 EVL       0.153100
     27 C40          2.5190    -4.4620    -0.9660 c3         1 EVL       0.144900
     28 C10         -8.0160    -2.0840    -0.4540 c3         1 EVL       0.195800
     29 N14         -1.2290     1.0780     1.3860 nb         1 EVL      -0.291000
     30 N17         -3.4980     1.7190     1.4810 nb         1 EVL      -0.291000
     31 N16         -2.9160    -0.4550     0.7600 nb         1 EVL      -0.342000
     32 N26          4.8730    -1.4050     0.4470 nh         1 EVL      -0.758400
     33 N32          7.6670     0.6490    -0.2830 n3         1 EVL      -0.729600
     34 N35          8.6970     3.2370    -1.0170 n3         1 EVL      -0.714600
     35 N7          -5.0970     0.1660     0.8420 nu         1 EVL      -0.947900
     36 O39          3.2860    -3.3920    -0.4550 os         1 EVL      -0.323100
     37 S8          -7.0400     0.1800    -1.4910 sy         1 EVL       1.129600
     38 H1          -7.6010     3.1180     3.2540 ha         1 EVL       0.119000
     39 H2          -9.3950     3.1490     1.5420 ha         1 EVL       0.122000
     40 H3           3.4290     0.6390     1.4760 ha         1 EVL       0.120000
     41 H4          -5.6100     1.7300     2.9420 ha         1 EVL       0.137000
     42 H5           1.0180     0.8240     1.6020 ha         1 EVL       0.152000
     43 H6          -9.1510     1.7930    -0.4980 ha         1 EVL       0.142000
     44 H7           0.6450    -2.9900    -0.3040 ha         1 EVL       0.114000
     45 H8          -1.9130     2.9110     1.9890 h5         1 EVL       0.050100
     46 H9           6.9870    -2.6580    -0.6970 hc         1 EVL       0.047950
     47 H10          7.2340    -1.5170    -1.9910 hc         1 EVL       0.047950
     48 H11          7.6330    -0.5560     2.2040 hc         1 EVL       0.047950
     49 H12          7.1990    -2.1330     1.6020 hc         1 EVL       0.047950
     50 H13          5.2630    -0.1950    -1.2470 h1         1 EVL       0.040200
     51 H14          4.8440    -1.8680    -1.5920 h1         1 EVL       0.040200
     52 H15          5.2210    -0.9020     2.4310 h1         1 EVL       0.040200
     53 H16          5.5600     0.4210     1.3150 h1         1 EVL       0.040200
     54 H17          9.5620     1.1470     0.5300 h1         1 EVL       0.036700
     55 H18          8.2030     1.2530     1.6500 h1         1 EVL       0.036700
     56 H19          7.3520     0.4600    -2.3460 h1         1 EVL       0.036700
     57 H20          9.0480     0.6570    -1.8990 h1         1 EVL       0.036700
     58 H21          7.3190     3.2230     0.5900 h1         1 EVL       0.036450
     59 H22          9.0150     3.4620     1.0280 h1         1 EVL       0.036450
     60 H23          8.1690     2.6680    -2.9470 h1         1 EVL       0.036450
     61 H24          6.8050     2.7330    -1.8260 h1         1 EVL       0.036450
     62 H25          8.7440    -1.1500     0.0010 h1         1 EVL       0.024700
     63 H26         -6.8720    -3.2720     0.9460 hc         1 EVL       0.044700
     64 H27         -8.4560    -3.9370     0.5350 hc         1 EVL       0.044700
     65 H28         -7.1310    -4.0540    -0.6190 hc         1 EVL       0.044700
     66 H29          9.2640     5.2080    -0.6240 h1         1 EVL       0.030033
     67 H30          8.8720     4.8670    -2.3100 h1         1 EVL       0.030033
     68 H31          7.5720     5.0450    -1.1210 h1         1 EVL       0.030033
     69 H32          1.8720    -4.9040    -0.2030 h1         1 EVL       0.038700
     70 H33          1.9020    -4.1560    -1.8150 h1         1 EVL       0.038700
     71 H34          3.2270    -5.2150    -1.3030 h1         1 EVL       0.038700
     72 H35         -8.7710    -2.2330    -1.2290 h1         1 EVL       0.053700
     73 H36         -8.4610    -1.4620     0.3240 h1         1 EVL       0.053700
     74 H39         -1.1690    -1.9190     0.2850 hn         1 EVL       0.509000
     75 H40         -5.2620    -0.7240     0.3860 hn         1 EVL       0.533000
     76 H41         -6.3430    -1.9190    -1.6930 hn         1 EVL       0.481000
     77 N19         -0.7420    -1.0720     0.6320 nu         1 EVL      -0.915900
     78 N9          -6.8390    -1.3860    -0.9820 n7         1 EVL      -0.888300
     79 O11         -8.2720     0.3630    -2.2450 o          1 EVL      -0.538000
     80 O12         -5.7840     0.5620    -2.1170 o          1 EVL      -0.538000
@<TRIPOS>BOND
     1     1     2 ar  
     2     1     4 ar  
     3     1    38 1   
     4     2     6 ar  
     5     2    39 1   
     6     3     5 ar  
     7     3     9 ar  
     8     3    40 1   
     9     4    11 ar  
    10     4    41 1   
    11     5    10 ar  
    12     5    42 1   
    13     6    13 ar  
    14     6    43 1   
    15     7    10 ar  
    16     7    12 ar  
    17     7    44 1   
    18     8    29 ar  
    19     8    30 ar  
    20     8    45 1   
    21     9    12 ar  
    22     9    32 1   
    23    10    77 1   
    24    11    13 ar  
    25    11    35 1   
    26    12    36 1   
    27    13    37 1   
    28    14    29 ar  
    29    14    31 ar  
    30    14    77 1   
    31    15    30 ar  
    32    15    31 ar  
    33    15    35 1   
    34    16    18 1   
    35    16    24 1   
    36    16    46 1   
    37    16    47 1   
    38    17    19 1   
    39    17    24 1   
    40    17    48 1   
    41    17    49 1   
    42    18    32 1   
    43    18    50 1   
    44    18    51 1   
    45    19    32 1   
    46    19    52 1   
    47    19    53 1   
    48    20    22 1   
    49    20    33 1   
    50    20    54 1   
    51    20    55 1   
    52    21    23 1   
    53    21    33 1   
    54    21    56 1   
    55    21    57 1   
    56    22    34 1   
    57    22    58 1   
    58    22    59 1   
    59    23    34 1   
    60    23    60 1   
    61    23    61 1   
    62    24    33 1   
    63    24    62 1   
    64    25    28 1   
    65    25    63 1   
    66    25    64 1   
    67    25    65 1   
    68    26    34 1   
    69    26    66 1   
    70    26    67 1   
    71    26    68 1   
    72    27    36 1   
    73    27    69 1   
    74    27    70 1   
    75    27    71 1   
    76    28    72 1   
    77    28    73 1   
    78    28    78 1   
    79    35    75 1   
    80    37    78 1   
    81    37    79 2   
    82    37    80 2   
    83    74    77 1   
    84    76    78 1   
@<TRIPOS>SUBSTRUCTURE
     1 EVL         1 TEMP              0 ****  ****    0 ROOT
