@<TRIPOS>MOLECULE
EVO
   27    29     1     0     0
SMALL
No Charge or Current Charge


@<TRIPOS>ATOM
      1 O           -1.9340    -2.9810     0.0140 o          1 EVO      -0.525000
      2 C1          -1.8750    -1.7610     0.0470 c          1 EVO       0.562200
      3 C8          -0.7030    -0.8690     0.2770 cc         1 EVO      -0.129400
      4 C7          -1.2060     0.5100     0.2130 ca         1 EVO      -0.106800
      5 C6          -0.5920     1.7400     0.5020 ca         1 EVO      -0.050000
      6 C5          -1.3740     2.9130     0.4050 ca         1 EVO      -0.146000
      7 C4          -2.7470     2.8450     0.0640 ca         1 EVO      -0.069000
      8 C3          -3.3620     1.5960    -0.1650 ca         1 EVO      -0.150000
      9 C2          -2.5610     0.4550    -0.0720 ca         1 EVO       0.068600
     10 N1          -2.9090    -0.8880    -0.1620 ns         1 EVO      -0.403100
     11 C9           0.5880    -1.3140     0.4050 cf         1 EVO      -0.060200
     12 C10          1.9070    -0.7300     0.0800 ca         1 EVO      -0.124800
     13 C14          3.0830    -1.3330     0.5790 ca         1 EVO       0.355900
     14 N2           4.3310    -0.8760     0.3160 nb         1 EVO      -0.664000
     15 C13          4.4480     0.2090    -0.4820 ca         1 EVO       0.344900
     16 C12          3.3400     0.8590    -1.0480 ca         1 EVO      -0.168000
     17 C11          2.0480     0.3830    -0.7720 ca         1 EVO      -0.057000
     18 H1           0.4480     1.7970     0.8100 ha         1 EVO       0.121000
     19 H2          -0.9190     3.8790     0.6110 ha         1 EVO       0.118000
     20 H3          -3.3360     3.7580     0.0030 ha         1 EVO       0.116000
     21 H4          -4.4230     1.5230    -0.3890 ha         1 EVO       0.122000
     22 H5          -3.8520    -1.2040    -0.3490 hn         1 EVO       0.341500
     23 H6           0.6390    -2.3980     0.5350 ha         1 EVO       0.204000
     24 H7           3.0230    -2.2100     1.2240 h4         1 EVO       0.024100
     25 H8           5.4600     0.5590    -0.6830 h4         1 EVO       0.022100
     26 H9           3.4880     1.7150    -1.7010 ha         1 EVO       0.127000
     27 H10          1.1860     0.8500    -1.2410 ha         1 EVO       0.128000
@<TRIPOS>BOND
     1     1     2 2   
     2     2     3 1   
     3     2    10 1   
     4     3     4 1   
     5     3    11 2   
     6     4     5 ar  
     7     4     9 ar  
     8     5     6 ar  
     9     5    18 1   
    10     6     7 ar  
    11     6    19 1   
    12     7     8 ar  
    13     7    20 1   
    14     8     9 ar  
    15     8    21 1   
    16     9    10 1   
    17    10    22 1   
    18    11    12 1   
    19    11    23 1   
    20    12    13 ar  
    21    12    17 ar  
    22    13    14 ar  
    23    13    24 1   
    24    14    15 ar  
    25    15    16 ar  
    26    15    25 1   
    27    16    17 ar  
    28    16    26 1   
    29    17    27 1   
@<TRIPOS>SUBSTRUCTURE
     1 EVO         1 TEMP              0 ****  ****    0 ROOT
