@<TRIPOS>MOLECULE
EVO
   27    29     1     0     0
SMALL
abcg2


@<TRIPOS>ATOM
      1 O           -1.9030    -2.9390    -0.0090 o          1 EVO      -0.525000
      2 C1          -1.8650    -1.7250     0.0110 c          1 EVO       0.562200
      3 C8          -0.6500    -0.8440     0.0160 cc         1 EVO      -0.129400
      4 C7          -1.1500     0.5280     0.0670 ca         1 EVO      -0.106800
      5 C6          -0.5520     1.7750     0.1820 ca         1 EVO      -0.050000
      6 C5          -1.3520     2.9110     0.2580 ca         1 EVO      -0.146000
      7 C4          -2.7370     2.8030     0.2250 ca         1 EVO      -0.069000
      8 C3          -3.3590     1.5620     0.1350 ca         1 EVO      -0.150000
      9 C2          -2.5510     0.4440     0.0660 ca         1 EVO       0.068600
     10 N1          -2.9370    -0.8860     0.0140 ns         1 EVO      -0.403100
     11 C9           0.5680    -1.4050     0.0090 cf         1 EVO      -0.060200
     12 C10          1.8710    -0.7570    -0.0860 ca         1 EVO      -0.124800
     13 C14          2.9360    -1.2450     0.6750 ca         1 EVO       0.355900
     14 N2           4.1570    -0.7380     0.6490 nb         1 EVO      -0.664000
     15 C13          4.3910     0.2810    -0.1710 ca         1 EVO       0.344900
     16 C12          3.4210     0.8230    -1.0020 ca         1 EVO      -0.168000
     17 C11          2.1430     0.2940    -0.9610 ca         1 EVO      -0.057000
     18 H1           0.5220     1.8810     0.2200 ha         1 EVO       0.121000
     19 H2          -0.8890     3.8850     0.3430 ha         1 EVO       0.118000
     20 H3          -3.3470     3.6960     0.2800 ha         1 EVO       0.116000
     21 H4          -4.4380     1.4760     0.1300 ha         1 EVO       0.122000
     22 H5          -3.8950    -1.2030     0.0110 hn         1 EVO       0.341500
     23 H6           0.5940    -2.4890     0.0870 ha         1 EVO       0.204000
     24 H7           2.7750    -2.0850     1.3440 h4         1 EVO       0.024100
     25 H8           5.4010     0.6760    -0.1790 h4         1 EVO       0.022100
     26 H9           3.6660     1.6350    -1.6720 ha         1 EVO       0.127000
     27 H10          1.3760     0.6740    -1.6220 ha         1 EVO       0.128000
@<TRIPOS>BOND
     1     1     2 2   
     2     2     3 1   
     3     2    10 1   
     4     3     4 1   
     5     3    11 2   
     6     4     5 ar  
     7     4     9 ar  
     8     5     6 ar  
     9     5    18 1   
    10     6     7 ar  
    11     6    19 1   
    12     7     8 ar  
    13     7    20 1   
    14     8     9 ar  
    15     8    21 1   
    16     9    10 1   
    17    10    22 1   
    18    11    12 1   
    19    11    23 1   
    20    12    13 ar  
    21    12    17 ar  
    22    13    14 ar  
    23    13    24 1   
    24    14    15 ar  
    25    15    16 ar  
    26    15    25 1   
    27    16    17 ar  
    28    16    26 1   
    29    17    27 1   
@<TRIPOS>SUBSTRUCTURE
     1 EVO         1 TEMP              0 ****  ****    0 ROOT
