@<TRIPOS>MOLECULE
EVP
   74    80     1     0     0
SMALL
bcc


@<TRIPOS>ATOM
      1 C1           1.1920    -5.7420     0.9060 c5         1 EVP       0.327200
      2 O1           0.0810    -5.0120     0.4040 os         1 EVP      -0.316900
      3 C2           1.6260    -3.5780     1.1540 ca         1 EVP       0.067100
      4 O2           2.0580    -4.8020     1.5310 os         1 EVP      -0.314900
      5 C3           2.1970    -2.3570     1.3800 ca         1 EVP      -0.112000
      6 O3           0.7790     3.3320     0.1380 os         1 EVP      -0.404900
      7 C4           1.5280    -1.2130     0.9050 ca         1 EVP      -0.050300
      8 C5           2.2150     0.1200     1.1420 c6         1 EVP       0.063900
      9 C6           1.1660     1.2150     0.9870 c5         1 EVP      -0.177700
     10 C7           1.5770     2.6630     0.9750 c          1 EVP       0.747600
     11 C8          -0.2090     2.4630    -0.4560 c5         1 EVP       0.144400
     12 O8          -1.5740     0.0320     0.6140 os         1 EVP      -0.408600
     13 C9           0.4040     1.0800    -0.3130 c5         1 EVP      -0.117700
     14 O9          -3.2720     1.2040    -0.3120 os         1 EVP      -0.428600
     15 C10         -0.4780    -0.1490    -0.2770 c6         1 EVP       0.227400
     16 O10         -6.3370     2.4870    -1.7470 os         1 EVP      -0.418600
     17 C11          0.3230    -1.3410     0.2160 ca         1 EVP      -0.110300
     18 O11         -6.8700     0.7660    -0.2940 os         1 EVP      -0.398600
     19 C12         -0.2440    -2.6120    -0.0050 ca         1 EVP      -0.110000
     20 O12         -6.0880    -1.0100     1.7730 oh         1 EVP      -0.576800
     21 C13          0.4240    -3.7040     0.4700 ca         1 EVP       0.052100
     22 O13         -3.3960    -1.9510     1.5150 oh         1 EVP      -0.598800
     23 C14          3.4240     0.2980     0.2420 ca         1 EVP      -0.062300
     24 C15          3.4650    -0.2400    -1.0410 ca         1 EVP      -0.195500
     25 C16          4.5740    -0.0420    -1.8570 ca         1 EVP       0.104600
     26 C17          5.6640     0.6930    -1.3880 ca         1 EVP       0.088100
     27 C18          5.6250     1.2160    -0.0940 ca         1 EVP       0.104600
     28 C19          4.5140     1.0180     0.7160 ca         1 EVP      -0.195500
     29 C20          3.6040    -1.2130    -3.6740 c3         1 EVP       0.127700
     30 C21          6.7690     2.5080     1.5410 c3         1 EVP       0.127700
     31 C22         -2.8470    -0.0750     0.0960 c6         1 EVP       0.318900
     32 C23         -4.5760     1.1640    -0.8350 c6         1 EVP       0.078100
     33 C24         -4.9860     2.5390    -1.3350 c6         1 EVP       0.139400
     34 C25         -7.2020     2.0620    -0.7270 c6         1 EVP       0.330900
     35 C26         -5.5690     0.7320     0.2420 c6         1 EVP       0.110100
     36 C27         -5.2170    -0.6570     0.7320 c6         1 EVP       0.168100
     37 C28         -3.7580    -0.6330     1.1930 c6         1 EVP       0.081100
     38 C29         -8.6120     2.0510    -1.2570 c3         1 EVP      -0.082100
     39 H1           0.8530    -6.4740     1.6390 h2         1 EVP       0.068200
     40 H1A          1.7160    -6.2370     0.0820 h2         1 EVP       0.068200
     41 H3           3.1350    -2.2620     1.9130 ha         1 EVP       0.161000
     42 H5           2.5740     0.1340     2.1750 hc         1 EVP       0.077700
     43 H6           0.4610     1.1210     1.8260 hc         1 EVP       0.098700
     44 HO6          7.3940     1.3960    -1.7570 ho         1 EVP       0.437000
     45 H8          -1.1440     2.5740     0.0930 h1         1 EVP       0.076700
     46 H8A         -0.3580     2.7760    -1.4870 h1         1 EVP       0.076700
     47 H9           1.1200     0.9400    -1.1310 hc         1 EVP       0.084700
     48 H10         -0.8550    -0.3640    -1.2840 h1         1 EVP       0.057700
     49 H12         -1.1780    -2.7190    -0.5440 ha         1 EVP       0.153000
     50 HO13        -2.5540    -1.9350     1.9820 ho         1 EVP       0.428000
     51 H15          2.6340    -0.8370    -1.3920 ha         1 EVP       0.144500
     52 H19          4.4830     1.4240     1.7170 ha         1 EVP       0.144500
     53 H20          3.3730    -2.1330    -3.1290 h1         1 EVP       0.042033
     54 H20A         2.7040    -0.5940    -3.7120 h1         1 EVP       0.042033
     55 H20B         3.8920    -1.4760    -4.6890 h1         1 EVP       0.042033
     56 H21          7.7290     3.0130     1.6160 h1         1 EVP       0.042033
     57 H21A         5.9710     3.2460     1.6620 h1         1 EVP       0.042033
     58 H21B         6.6930     1.7710     2.3440 h1         1 EVP       0.042033
     59 H22         -2.8680    -0.7570    -0.7730 h2         1 EVP       0.035700
     60 H23         -4.6330     0.4520    -1.6740 h1         1 EVP       0.061700
     61 H24         -4.3920     2.8450    -2.1960 h1         1 EVP       0.062700
     62 H24A        -4.8450     3.2830    -0.5380 h1         1 EVP       0.062700
     63 H25         -7.1120     2.7520     0.1310 h2         1 EVP       0.028700
     64 H26         -5.4930     1.4370     1.0880 h1         1 EVP       0.060700
     65 H27         -5.3030    -1.3600    -0.1120 h1         1 EVP       0.053700
     66 H28         -3.6850     0.0320     2.0670 h1         1 EVP       0.068700
     67 H29         -8.7100     1.3660    -2.1000 hc         1 EVP       0.056700
     68 H29A        -9.3040     1.7410    -0.4750 hc         1 EVP       0.056700
     69 H29B        -8.9000     3.0490    -1.5830 hc         1 EVP       0.056700
     70 O4           2.4300     3.2190     1.6110 o          1 EVP      -0.569500
     71 HO12        -5.8660    -1.8990     2.0660 ho         1 EVP       0.422000
     72 O5           4.6980    -0.5200    -3.1120 os         1 EVP      -0.318400
     73 O6           6.7260     0.8630    -2.2040 oh         1 EVP      -0.475100
     74 O7           6.7330     1.9010     0.2650 os         1 EVP      -0.318400
@<TRIPOS>BOND
     1     1     2 1   
     2     1     4 1   
     3     1    39 1   
     4     1    40 1   
     5     2    21 1   
     6     3     4 1   
     7     3     5 ar  
     8     3    21 ar  
     9     5     7 ar  
    10     5    41 1   
    11     6    10 1   
    12     6    11 1   
    13     7     8 1   
    14     7    17 ar  
    15     8     9 1   
    16     8    23 1   
    17     8    42 1   
    18     9    10 1   
    19     9    13 1   
    20     9    43 1   
    21    10    70 2   
    22    11    13 1   
    23    11    45 1   
    24    11    46 1   
    25    12    15 1   
    26    12    31 1   
    27    13    15 1   
    28    13    47 1   
    29    14    31 1   
    30    14    32 1   
    31    15    17 1   
    32    15    48 1   
    33    16    33 1   
    34    16    34 1   
    35    17    19 ar  
    36    18    34 1   
    37    18    35 1   
    38    19    21 ar  
    39    19    49 1   
    40    20    36 1   
    41    20    71 1   
    42    22    37 1   
    43    22    50 1   
    44    23    24 ar  
    45    23    28 ar  
    46    24    25 ar  
    47    24    51 1   
    48    25    26 ar  
    49    25    72 1   
    50    26    27 ar  
    51    26    73 1   
    52    27    28 ar  
    53    27    74 1   
    54    28    52 1   
    55    29    53 1   
    56    29    54 1   
    57    29    55 1   
    58    29    72 1   
    59    30    56 1   
    60    30    57 1   
    61    30    58 1   
    62    30    74 1   
    63    31    37 1   
    64    31    59 1   
    65    32    33 1   
    66    32    35 1   
    67    32    60 1   
    68    33    61 1   
    69    33    62 1   
    70    34    38 1   
    71    34    63 1   
    72    35    36 1   
    73    35    64 1   
    74    36    37 1   
    75    36    65 1   
    76    37    66 1   
    77    38    67 1   
    78    38    68 1   
    79    38    69 1   
    80    44    73 1   
@<TRIPOS>SUBSTRUCTURE
     1 EVP         1 TEMP              0 ****  ****    0 ROOT
