@<TRIPOS>MOLECULE
EVP
   74    80     1     0     0
SMALL
No Charge or Current Charge


@<TRIPOS>ATOM
      1 C1           1.4810    -5.8970     0.7570 c5         1 EVP       0.373600
      2 O1           0.3230    -5.1820     0.1970 os         1 EVP      -0.340100
      3 C2           1.8870    -3.7320     0.9530 ca         1 EVP       0.067100
      4 O2           2.5000    -4.9220     1.1800 os         1 EVP      -0.338100
      5 C3           2.4230    -2.4710     1.2290 ca         1 EVP      -0.094000
      6 O3           0.5260     3.3180     0.5700 os         1 EVP      -0.428100
      7 C4           1.6540    -1.3240     0.9210 ca         1 EVP      -0.050300
      8 C5           2.2820     0.0600     1.2020 c6         1 EVP       0.063900
      9 C6           1.1840     1.1530     1.1820 c5         1 EVP      -0.177700
     10 C7           1.5530     2.6390     1.1720 c          1 EVP       0.672100
     11 C8          -0.5110     2.3880     0.1620 c5         1 EVP       0.167600
     12 O8          -1.6040    -0.2310     0.9530 os         1 EVP      -0.455000
     13 C9           0.2490     1.0470    -0.0300 c5         1 EVP      -0.117700
     14 O9          -3.2120     0.9300    -0.3060 os         1 EVP      -0.475000
     15 C10         -0.5470    -0.2760    -0.0270 c6         1 EVP       0.250600
     16 O10         -6.1330     2.2060    -2.2530 os         1 EVP      -0.465000
     17 C11          0.3550    -1.4780     0.3280 ca         1 EVP      -0.110300
     18 O11         -6.9230     0.9150    -0.4720 os         1 EVP      -0.445000
     19 C12         -0.1430    -2.7770     0.0670 ca         1 EVP      -0.092000
     20 O12         -6.3610    -0.5810     2.0690 oh         1 EVP      -0.699000
     21 C13          0.6520    -3.8800     0.3940 ca         1 EVP       0.052100
     22 O13         -3.7250    -1.6310     2.3830 oh         1 EVP      -0.721000
     23 C14          3.4390     0.3510     0.2240 ca         1 EVP      -0.062300
     24 C15          3.3510    -0.0110    -1.1370 ca         1 EVP      -0.177500
     25 C16          4.4180     0.2480    -2.0250 ca         1 EVP       0.104600
     26 C17          5.5900     0.8740    -1.5390 ca         1 EVP       0.088100
     27 C18          5.6890     1.2290    -0.1780 ca         1 EVP       0.104600
     28 C19          4.6160     0.9600     0.6980 ca         1 EVP      -0.177500
     29 C20          3.2020    -0.7400    -3.9440 c3         1 EVP       0.150900
     30 C21          7.0530     2.2580     1.6130 c3         1 EVP       0.150900
     31 C22         -2.9360    -0.2860     0.4190 c6         1 EVP       0.365300
     32 C23         -4.5170     0.9350    -0.9300 c6         1 EVP       0.101300
     33 C24         -4.7690     2.2120    -1.7680 c6         1 EVP       0.162600
     34 C25         -7.1150     2.1430    -1.1990 c6         1 EVP       0.377300
     35 C26         -5.6220     0.8430     0.1580 c6         1 EVP       0.133300
     36 C27         -5.4070    -0.4520     0.9990 c6         1 EVP       0.191300
     37 C28         -3.9650    -0.4440     1.5860 c6         1 EVP       0.104300
     38 C29         -8.5070     2.0860    -1.8580 c3         1 EVP      -0.082100
     39 H1           1.1570    -6.4780     1.6290 h2         1 EVP       0.068200
     40 H1A          1.9040    -6.5640    -0.0030 h2         1 EVP       0.068200
     41 H3           3.4150    -2.3820     1.6630 ha         1 EVP       0.143000
     42 H5           2.6970     0.0360     2.2200 hc         1 EVP       0.077700
     43 H6           0.5810     0.9970     2.0850 hc         1 EVP       0.098700
     44 HO6          7.3400     1.5710    -1.8270 ho         1 EVP       0.476000
     45 H8          -1.2590     2.3240     0.9650 h1         1 EVP       0.076700
     46 H8A         -1.0070     2.7410    -0.7510 h1         1 EVP       0.076700
     47 H9           0.8020     1.0680    -0.9750 hc         1 EVP       0.084700
     48 H10         -0.9760    -0.4360    -1.0280 h1         1 EVP       0.057700
     49 H12         -1.1230    -2.9250    -0.3790 ha         1 EVP       0.135000
     50 HO13        -2.7520    -1.6510     2.5560 ho         1 EVP       0.527000
     51 H15          2.4500    -0.5010    -1.4920 ha         1 EVP       0.126500
     52 H19          4.6790     1.2270     1.7490 ha         1 EVP       0.126500
     53 H20          3.0120    -1.7080    -3.4620 h1         1 EVP       0.042033
     54 H20A         2.3080    -0.1110    -3.8380 h1         1 EVP       0.042033
     55 H20B         3.3650    -0.9200    -5.0140 h1         1 EVP       0.042033
     56 H21          8.0410     2.7200     1.7300 h1         1 EVP       0.042033
     57 H21A         6.2950     2.9960     1.9050 h1         1 EVP       0.042033
     58 H21B         6.9950     1.4020     2.2980 h1         1 EVP       0.042033
     59 H22         -3.0210    -1.1490    -0.2580 h2         1 EVP       0.035700
     60 H23         -4.5900     0.0640    -1.5990 h1         1 EVP       0.061700
     61 H24         -4.0810     2.2430    -2.6240 h1         1 EVP       0.062700
     62 H24A        -4.6010     3.1100    -1.1550 h1         1 EVP       0.062700
     63 H25         -7.0360     3.0150    -0.5310 h2         1 EVP       0.028700
     64 H26         -5.5220     1.7070     0.8320 h1         1 EVP       0.060700
     65 H27         -5.4950    -1.3150     0.3220 h1         1 EVP       0.053700
     66 H28         -3.8640     0.4490     2.2220 h1         1 EVP       0.068700
     67 H29         -8.5950     1.2210    -2.5250 hc         1 EVP       0.056700
     68 H29A        -9.2940     2.0120    -1.0990 hc         1 EVP       0.056700
     69 H29B        -8.6960     2.9900    -2.4470 hc         1 EVP       0.056700
     70 O4           2.5990     3.1680     1.5150 o          1 EVP      -0.494000
     71 HO12        -5.9260    -1.2040     2.7010 ho         1 EVP       0.521000
     72 O5           4.3520    -0.0970    -3.3660 os         1 EVP      -0.341600
     73 O6           6.6460     1.1420    -2.3750 oh         1 EVP      -0.514100
     74 O7           6.8580     1.8370     0.2500 os         1 EVP      -0.341600
@<TRIPOS>BOND
     1     1     2 1   
     2     1     4 1   
     3     1    39 1   
     4     1    40 1   
     5     2    21 1   
     6     3     4 1   
     7     3     5 ar  
     8     3    21 ar  
     9     5     7 ar  
    10     5    41 1   
    11     6    10 1   
    12     6    11 1   
    13     7     8 1   
    14     7    17 ar  
    15     8     9 1   
    16     8    23 1   
    17     8    42 1   
    18     9    10 1   
    19     9    13 1   
    20     9    43 1   
    21    10    70 2   
    22    11    13 1   
    23    11    45 1   
    24    11    46 1   
    25    12    15 1   
    26    12    31 1   
    27    13    15 1   
    28    13    47 1   
    29    14    31 1   
    30    14    32 1   
    31    15    17 1   
    32    15    48 1   
    33    16    33 1   
    34    16    34 1   
    35    17    19 ar  
    36    18    34 1   
    37    18    35 1   
    38    19    21 ar  
    39    19    49 1   
    40    20    36 1   
    41    20    71 1   
    42    22    37 1   
    43    22    50 1   
    44    23    24 ar  
    45    23    28 ar  
    46    24    25 ar  
    47    24    51 1   
    48    25    26 ar  
    49    25    72 1   
    50    26    27 ar  
    51    26    73 1   
    52    27    28 ar  
    53    27    74 1   
    54    28    52 1   
    55    29    53 1   
    56    29    54 1   
    57    29    55 1   
    58    29    72 1   
    59    30    56 1   
    60    30    57 1   
    61    30    58 1   
    62    30    74 1   
    63    31    37 1   
    64    31    59 1   
    65    32    33 1   
    66    32    35 1   
    67    32    60 1   
    68    33    61 1   
    69    33    62 1   
    70    34    38 1   
    71    34    63 1   
    72    35    36 1   
    73    35    64 1   
    74    36    37 1   
    75    36    65 1   
    76    37    66 1   
    77    38    67 1   
    78    38    68 1   
    79    38    69 1   
    80    44    73 1   
@<TRIPOS>SUBSTRUCTURE
     1 EVP         1 TEMP              0 ****  ****    0 ROOT
