@<TRIPOS>MOLECULE
EVQ
   68    72     1     0     0
SMALL
No Charge or Current Charge


@<TRIPOS>ATOM
      1 C1          11.9400     0.3820     1.4020 c3         1 EVQ       0.148900
      2 C3           9.6790     0.8900     0.5520 ca         1 EVQ       0.142100
      3 C5           9.2200     1.3750    -1.7930 ca         1 EVQ      -0.073000
      4 C6           7.8580     1.5370    -1.4930 ca         1 EVQ      -0.147000
      5 C7           7.3930     1.3820    -0.1710 ca         1 EVQ      -0.064300
      6 C8           8.3150     1.0540     0.8430 ca         1 EVQ      -0.131000
      7 C10          5.3810     2.9480    -0.2130 c3         1 EVQ      -0.107100
      8 C12          3.8820     0.0760    -0.0600 c          1 EVQ       0.573100
      9 C14          3.2640    -1.0470    -0.9220 c3         1 EVQ       0.026000
     10 C16          1.5940    -2.6570     0.3520 c5         1 EVQ       0.142300
     11 C19         -2.2020    -3.0800     1.0290 ca         1 EVQ      -0.053000
     12 C21         -1.7530    -1.1420    -0.3910 ca         1 EVQ       0.007000
     13 C22         -0.3900    -1.4560    -0.3050 ca         1 EVQ      -0.166600
     14 C23          0.7610    -0.7620    -0.9060 c          1 EVQ       0.590600
     15 C25         -4.1590    -1.6580     0.2160 cp         1 EVQ       0.243500
     16 C27         -5.7960    -0.0400     0.3390 ca         1 EVQ       0.393900
     17 C31         -8.7010     4.0570     0.9190 c6         1 EVQ       0.157100
     18 C36         -6.5060    -2.1790    -0.0570 ca         1 EVQ       0.163900
     19 C37         -5.1730    -2.6260    -0.0300 ca         1 EVQ      -0.065000
     20 O2          10.5270     0.5720     1.5930 os         1 EVQ      -0.340100
     21 C4          10.1330     1.0520    -0.7750 ca         1 EVQ      -0.194000
     22 C9           5.9120     1.5500     0.1660 c3         1 EVQ       0.161000
     23 N11          5.1270     0.4950    -0.4750 ns         1 EVQ      -0.506900
     24 O13          3.3290     0.5560     0.9220 o          1 EVQ      -0.591100
     25 N15          1.9020    -1.4810    -0.5200 n          1 EVQ      -0.399800
     26 C17          0.0760    -2.5400     0.4150 ca         1 EVQ      -0.062300
     27 C18         -0.8240    -3.3690     1.0980 ca         1 EVQ      -0.108000
     28 C20         -2.6950    -1.9720     0.2770 cp         1 EVQ      -0.170500
     29 N26         -4.4940    -0.3620     0.3840 nb         1 EVQ      -0.248000
     30 N28         -6.0750     1.3050     0.5350 nu         1 EVQ      -0.910100
     31 C29         -7.3920     1.9480     0.4080 c6         1 EVQ       0.245500
     32 C30         -7.3710     3.3040     1.1500 c6         1 EVQ      -0.132400
     33 O32         -8.9310     4.2150    -0.4970 os         1 EVQ      -0.449000
     34 C33         -9.0510     2.9690    -1.2160 c6         1 EVQ       0.157100
     35 C34         -7.7410     2.1610    -1.0850 c6         1 EVQ      -0.132400
     36 N35         -6.8240    -0.8840     0.1330 nb         1 EVQ      -0.240000
     37 Cl1         -4.8380    -4.3290    -0.3580 cl         1 EVQ      -0.176000
     38 H42         12.4240     0.1370     2.3560 h1         1 EVQ       0.041367
     39 H41         12.1320    -0.4410     0.7020 h1         1 EVQ       0.041367
     40 H40         12.4070     1.2950     1.0090 h1         1 EVQ       0.041367
     41 H44          9.5690     1.4970    -2.8160 ha         1 EVQ       0.112000
     42 H45          7.1640     1.7820    -2.2940 ha         1 EVQ       0.113000
     43 H46          7.9750     0.9250     1.8680 ha         1 EVQ       0.131000
     44 H49          5.9890     3.7280     0.2610 hc         1 EVQ       0.047033
     45 H48          5.4070     3.1030    -1.2970 hc         1 EVQ       0.047033
     46 H47          4.3450     3.0750     0.1250 hc         1 EVQ       0.047033
     47 H51          3.2420    -0.6960    -1.9620 h1         1 EVQ       0.073700
     48 H52          3.9430    -1.9080    -0.8790 h1         1 EVQ       0.073700
     49 H53          1.9110    -3.6030    -0.1070 h1         1 EVQ       0.066700
     50 H54          2.0520    -2.5610     1.3460 h1         1 EVQ       0.066700
     51 H56         -2.8960    -3.7120     1.5790 ha         1 EVQ       0.124000
     52 H57         -2.0790    -0.2790    -0.9700 ha         1 EVQ       0.146000
     53 H63         -8.6570     5.0500     1.3880 h1         1 EVQ       0.047950
     54 H68         -7.3310    -2.8640    -0.2440 h4         1 EVQ       0.033100
     55 H43         11.1810     0.9320    -1.0330 ha         1 EVQ       0.118000
     56 H39          5.7960     1.4390     1.2530 h1         1 EVQ       0.079700
     57 H50          5.5230     0.0350    -1.2850 hn         1 EVQ       0.312500
     58 H55         -0.4660    -4.2170     1.6770 ha         1 EVQ       0.123000
     59 H58         -5.2590     1.8980     0.6850 hn         1 EVQ       0.506000
     60 H59         -8.1730     1.3240     0.8730 h1         1 EVQ       0.078700
     61 H60         -6.5380     3.9240     0.7940 hc         1 EVQ       0.059200
     62 H61         -7.2160     3.1450     2.2260 hc         1 EVQ       0.059200
     63 H65         -9.8990     2.3950    -0.8120 h1         1 EVQ       0.047950
     64 H64         -9.2570     3.1830    -2.2750 h1         1 EVQ       0.047950
     65 H66         -6.9290     2.6990    -1.5930 hc         1 EVQ       0.059200
     66 H67         -7.8500     1.1950    -1.5950 hc         1 EVQ       0.059200
     67 O24          0.7340     0.2390    -1.6080 o          1 EVQ      -0.535000
     68 H62         -9.5400     3.5040     1.3660 h1         1 EVQ       0.047950
@<TRIPOS>BOND
     1     1    20 1   
     2     1    38 1   
     3     1    39 1   
     4     1    40 1   
     5     2     6 ar  
     6     2    20 1   
     7     2    21 ar  
     8     3     4 ar  
     9     3    21 ar  
    10     3    41 1   
    11     4     5 ar  
    12     4    42 1   
    13     5     6 ar  
    14     5    22 1   
    15     6    43 1   
    16     7    22 1   
    17     7    44 1   
    18     7    45 1   
    19     7    46 1   
    20     8     9 1   
    21     8    23 1   
    22     8    24 2   
    23     9    25 1   
    24     9    47 1   
    25     9    48 1   
    26    10    25 1   
    27    10    26 1   
    28    10    49 1   
    29    10    50 1   
    30    11    27 ar  
    31    11    28 ar  
    32    11    51 1   
    33    12    13 ar  
    34    12    28 ar  
    35    12    52 1   
    36    13    14 1   
    37    13    26 ar  
    38    14    25 1   
    39    14    67 2   
    40    15    19 ar  
    41    15    28 1   
    42    15    29 ar  
    43    16    29 ar  
    44    16    30 1   
    45    16    36 ar  
    46    17    32 1   
    47    17    33 1   
    48    17    53 1   
    49    17    68 1   
    50    18    19 ar  
    51    18    36 ar  
    52    18    54 1   
    53    19    37 1   
    54    21    55 1   
    55    22    23 1   
    56    22    56 1   
    57    23    57 1   
    58    26    27 ar  
    59    27    58 1   
    60    30    31 1   
    61    30    59 1   
    62    31    32 1   
    63    31    35 1   
    64    31    60 1   
    65    32    61 1   
    66    32    62 1   
    67    33    34 1   
    68    34    35 1   
    69    34    63 1   
    70    34    64 1   
    71    35    65 1   
    72    35    66 1   
@<TRIPOS>SUBSTRUCTURE
     1 EVQ         1 TEMP              0 ****  ****    0 ROOT
