@<TRIPOS>MOLECULE
EVQ
   68    72     1     0     0
SMALL
bcc


@<TRIPOS>ATOM
      1 C1          11.3360     0.2780     2.0590 c3         1 EVQ       0.125700
      2 C3           9.3380     0.7470     0.8700 ca         1 EVQ       0.142100
      3 C5           9.2530     0.9860    -1.5170 ca         1 EVQ      -0.091000
      4 C6           7.8970     1.2540    -1.4630 ca         1 EVQ      -0.165000
      5 C7           7.2430     1.2590    -0.2290 ca         1 EVQ      -0.064300
      6 C8           7.9650     1.0040     0.9240 ca         1 EVQ      -0.149000
      7 C10          5.4160     2.9500    -0.6290 c3         1 EVQ      -0.107100
      8 C12          3.7690     0.1660    -0.5560 c          1 EVQ       0.640100
      9 C14          3.1690    -0.8750    -1.5020 c3         1 EVQ       0.026000
     10 C16          1.7150    -2.3350    -0.0600 c5         1 EVQ       0.142300
     11 C19         -1.9120    -2.8290     1.0490 ca         1 EVQ      -0.071000
     12 C21         -1.6790    -1.0230    -0.5380 ca         1 EVQ      -0.011000
     13 C22         -0.3250    -1.2950    -0.5730 ca         1 EVQ      -0.166600
     14 C23          0.7410    -0.6290    -1.3490 c          1 EVQ       0.733100
     15 C25         -3.9370    -1.5340     0.3230 cp         1 EVQ       0.571800
     16 C27         -5.5800     0.0520     0.4830 ca         1 EVQ       0.919900
     17 C31         -8.6620     3.8660     1.0540 c6         1 EVQ       0.133900
     18 C36         -6.2420    -2.0930     0.2520 ca         1 EVQ       0.492200
     19 C37         -4.9230    -2.5150     0.2030 ca         1 EVQ      -0.287200
     20 O2           9.9440     0.5230     2.0510 os         1 EVQ      -0.316900
     21 C4           9.9860     0.7340    -0.3610 ca         1 EVQ      -0.212000
     22 C9           5.7620     1.5470    -0.1360 c3         1 EVQ       0.161000
     23 N11          5.0230     0.5250    -0.8640 ns         1 EVQ      -0.573900
     24 O13          3.1410     0.6130     0.3890 o          1 EVQ      -0.591100
     25 N15          1.8810    -1.3060    -1.0650 n          1 EVQ      -0.466800
     26 C17          0.2420    -2.3020     0.1900 ca         1 EVQ      -0.062300
     27 C18         -0.5470    -3.0780     1.0210 ca         1 EVQ      -0.126000
     28 C20         -2.4860    -1.8150     0.2730 cp         1 EVQ      -0.170500
     29 N26         -4.2790    -0.2630     0.4530 nb         1 EVQ      -0.774000
     30 N28         -5.8830     1.3520     0.6350 nu         1 EVQ      -0.854900
     31 C29         -7.2190     1.8970     0.5360 c6         1 EVQ       0.245500
     32 C30         -7.2790     3.2550     1.2240 c6         1 EVQ      -0.132400
     33 O32         -9.0330     3.9760    -0.3030 os         1 EVQ      -0.402600
     34 C33         -9.0540     2.7200    -0.9480 c6         1 EVQ       0.133900
     35 C34         -7.6930     2.0420    -0.9110 c6         1 EVQ      -0.132400
     36 N35         -6.5830    -0.8290     0.3960 nb         1 EVQ      -0.766000
     37 CL1         -4.5810    -4.1830    -0.0810 cl         1 EVQ      -0.084400
     38 H42         11.6180     0.1370     3.1000 h1         1 EVQ       0.041367
     39 H41         11.5980    -0.6240     1.5000 h1         1 EVQ       0.041367
     40 H40         11.9010     1.1200     1.6530 h1         1 EVQ       0.041367
     41 H44          9.7620     0.9760    -2.4720 ha         1 EVQ       0.130000
     42 H45          7.3560     1.4600    -2.3790 ha         1 EVQ       0.131000
     43 H46          7.4680     1.0070     1.8870 ha         1 EVQ       0.149000
     44 H49          5.9700     3.7000    -0.0650 hc         1 EVQ       0.047033
     45 H48          5.6550     3.0730    -1.6860 hc         1 EVQ       0.047033
     46 H47          4.3520     3.1460    -0.4960 hc         1 EVQ       0.047033
     47 H51          3.0920    -0.4440    -2.5030 h1         1 EVQ       0.073700
     48 H52          3.8360    -1.7360    -1.5820 h1         1 EVQ       0.073700
     49 H53          2.0520    -3.3080    -0.4280 h1         1 EVQ       0.066700
     50 H54          2.2840    -2.1060     0.8450 h1         1 EVQ       0.066700
     51 H56         -2.5350    -3.4190     1.7060 ha         1 EVQ       0.142000
     52 H57         -2.1060    -0.2250    -1.1330 ha         1 EVQ       0.164000
     53 H63         -8.6880     4.8720     1.4750 h1         1 EVQ       0.047950
     54 H68         -7.0470    -2.8150     0.1590 h4         1 EVQ       0.033100
     55 H43         11.0460     0.5350    -0.4430 ha         1 EVQ       0.136000
     56 H39          5.4670     1.4700     0.9110 h1         1 EVQ       0.079700
     57 H50          5.4470     0.1340    -1.6910 hn         1 EVQ       0.312500
     58 H55         -0.1220    -3.8590     1.6380 ha         1 EVQ       0.141000
     59 H58         -5.1060     1.9940     0.5950 hn         1 EVQ       0.450800
     60 H59         -7.8970     1.2140     1.0560 h1         1 EVQ       0.078700
     61 H60         -6.5260     3.9230     0.7930 hc         1 EVQ       0.059200
     62 H61         -7.0570     3.1560     2.2890 hc         1 EVQ       0.059200
     63 H65         -9.8050     2.0640    -0.4830 h1         1 EVQ       0.047950
     64 H64         -9.3680     2.8960    -1.9780 h1         1 EVQ       0.047950
     65 H66         -6.9660     2.6370    -1.4730 hc         1 EVQ       0.059200
     66 H67         -7.7630     1.0650    -1.3920 hc         1 EVQ       0.059200
     67 O24          0.6370     0.3220    -2.1040 o          1 EVQ      -0.610500
     68 H62         -9.3980     3.2600     1.6020 h1         1 EVQ       0.047950
@<TRIPOS>BOND
     1     1    20 1   
     2     1    38 1   
     3     1    39 1   
     4     1    40 1   
     5     2     6 ar  
     6     2    20 1   
     7     2    21 ar  
     8     3     4 ar  
     9     3    21 ar  
    10     3    41 1   
    11     4     5 ar  
    12     4    42 1   
    13     5     6 ar  
    14     5    22 1   
    15     6    43 1   
    16     7    22 1   
    17     7    44 1   
    18     7    45 1   
    19     7    46 1   
    20     8     9 1   
    21     8    23 1   
    22     8    24 2   
    23     9    25 1   
    24     9    47 1   
    25     9    48 1   
    26    10    25 1   
    27    10    26 1   
    28    10    49 1   
    29    10    50 1   
    30    11    27 ar  
    31    11    28 ar  
    32    11    51 1   
    33    12    13 ar  
    34    12    28 ar  
    35    12    52 1   
    36    13    14 1   
    37    13    26 ar  
    38    14    25 1   
    39    14    67 2   
    40    15    19 ar  
    41    15    28 1   
    42    15    29 ar  
    43    16    29 ar  
    44    16    30 1   
    45    16    36 ar  
    46    17    32 1   
    47    17    33 1   
    48    17    53 1   
    49    17    68 1   
    50    18    19 ar  
    51    18    36 ar  
    52    18    54 1   
    53    19    37 1   
    54    21    55 1   
    55    22    23 1   
    56    22    56 1   
    57    23    57 1   
    58    26    27 ar  
    59    27    58 1   
    60    30    31 1   
    61    30    59 1   
    62    31    32 1   
    63    31    35 1   
    64    31    60 1   
    65    32    61 1   
    66    32    62 1   
    67    33    34 1   
    68    34    35 1   
    69    34    63 1   
    70    34    64 1   
    71    35    65 1   
    72    35    66 1   
@<TRIPOS>SUBSTRUCTURE
     1 EVQ         1 TEMP              0 ****  ****    0 ROOT
