@<TRIPOS>MOLECULE
EVR
  105   110     1     0     0
SMALL
abcg2


@<TRIPOS>ATOM
      1 C39         -3.3240     3.9460    -1.3360 ca         1 EVR      -0.038000
      2 C34         -4.3540     4.6630    -0.7370 ca         1 EVR      -0.151000
      3 C17          4.2120    -1.0100     0.3080 ca         1 EVR      -0.097000
      4 C38         -3.0800     2.6320    -0.9910 ca         1 EVR      -0.145000
      5 C18          2.8310    -0.8360     0.3470 ca         1 EVR      -0.155000
      6 C35         -5.1390     4.0350     0.2050 ca         1 EVR      -0.021000
      7 C3          -6.8610    -2.0870    -0.4260 ca         1 EVR      -0.175000
      8 C7          -6.0630    -4.3230    -0.0440 ca         1 EVR      -0.175000
      9 C14          3.1570     1.4090    -0.4470 ca         1 EVR      -0.255000
     10 C5          -8.4300    -3.8370     0.1450 ca         1 EVR      -0.284000
     11 C50         -1.2070    -1.9950     0.6650 ca         1 EVR       0.162900
     12 C2          -5.8110    -2.9930    -0.3570 ca         1 EVR      -0.009300
     13 C49         -2.4530    -1.4170     0.6190 ca         1 EVR      -0.270300
     14 C16          5.0900    -0.0120    -0.0840 ca         1 EVR       0.200000
     15 C13          2.2890     0.3820    -0.0420 ca         1 EVR       0.342000
     16 C37         -3.8520     1.9780    -0.0210 ca         1 EVR       0.425000
     17 C4          -8.1650    -2.5060    -0.1760 ca         1 EVR       0.177600
     18 C6          -7.3680    -4.7420     0.2050 ca         1 EVR       0.177600
     19 C15          4.5290     1.2290    -0.4570 ca         1 EVR       0.166100
     20 C36         -4.9060     2.7080     0.5610 ca         1 EVR      -0.355500
     21 C45         -2.4400    -0.0280     0.3390 ca         1 EVR       0.423900
     22 C47         -0.1710    -0.0590     0.1930 ca         1 EVR       0.416900
     23 C21          8.5490    -0.9730     0.9260 c6         1 EVR      -0.092400
     24 C23          8.5690    -0.1270    -1.4120 c6         1 EVR      -0.092400
     25 C20          7.0400    -1.1430     0.8160 c6         1 EVR       0.190800
     26 C24          7.0590    -0.3050    -1.4400 c6         1 EVR       0.190800
     27 C26         11.3060    -2.2150     0.0940 c6         1 EVR       0.172800
     28 C30         11.2350     0.1610     0.1060 c6         1 EVR       0.172800
     29 C27         12.8000    -2.1720    -0.1710 c6         1 EVR       0.164300
     30 C29         12.7280     0.2060    -0.1680 c6         1 EVR       0.164300
     31 C22          9.2080    -1.1210    -0.4490 c6         1 EVR       0.191500
     32 C52         -9.5530     2.0920     0.0850 c3         1 EVR      -0.090100
     33 C11        -10.4600    -1.9040     0.0070 c3         1 EVR       0.151400
     34 C10         -8.8180    -6.5290     0.8060 c3         1 EVR       0.151400
     35 C33          4.9040     3.4570    -1.1930 c3         1 EVR       0.144900
     36 C1          -4.4050    -2.5040    -0.5550 c3         1 EVR      -0.033100
     37 C44         -8.0450     1.9370     0.1140 c3         1 EVR       0.203800
     38 N46         -0.0580    -1.3500     0.4610 nb         1 EVR      -0.248000
     39 N48         -1.3160     0.6270     0.1320 nb         1 EVR      -0.316000
     40 N19          6.4900    -0.1650    -0.1040 nh         1 EVR      -0.758400
     41 N25         10.6620    -1.0430    -0.4660 n3         1 EVR      -0.734600
     42 N28         13.3820    -0.9650     0.3790 n3         1 EVR      -0.719600
     43 N51         -3.6280     0.6490     0.3050 nu         1 EVR      -0.957900
     44 N12          0.9340     0.6980    -0.0500 nu         1 EVR      -0.927900
     45 O8          -9.1170    -1.5580    -0.2640 os         1 EVR      -0.346100
     46 O9          -7.5260    -6.0470     0.4990 os         1 EVR      -0.346100
     47 O32          5.4010     2.1920    -0.8060 os         1 EVR      -0.323100
     48 S40         -5.9890     2.0800     1.8290 sy         1 EVR       1.157600
     49 H1          -2.7080     4.4120    -2.0930 ha         1 EVR       0.116000
     50 H2          -4.5450     5.6920    -1.0080 ha         1 EVR       0.120000
     51 H3           4.6040    -1.9740     0.6050 ha         1 EVR       0.116000
     52 H4          -2.2840     2.0960    -1.4830 ha         1 EVR       0.140000
     53 H5           2.1980    -1.6480     0.6640 ha         1 EVR       0.152000
     54 H6          -5.9500     4.5870     0.6640 ha         1 EVR       0.106000
     55 H7          -6.6700    -1.0510    -0.6740 ha         1 EVR       0.125000
     56 H8          -5.2530    -5.0400     0.0070 ha         1 EVR       0.125000
     57 H9           2.7290     2.3590    -0.7420 ha         1 EVR       0.114000
     58 H10         -9.4410    -4.1630     0.3400 ha         1 EVR       0.119000
     59 H11         -1.1230    -3.0570     0.8770 h4         1 EVR       0.023100
     60 H12          8.7660     0.0150     1.3420 hc         1 EVR       0.052700
     61 H13          8.9400    -1.7140     1.6270 hc         1 EVR       0.052700
     62 H14          8.9680    -0.2710    -2.4190 hc         1 EVR       0.052700
     63 H15          8.7930     0.9010    -1.1130 hc         1 EVR       0.052700
     64 H16          6.8250    -2.1780     0.5000 h1         1 EVR       0.034200
     65 H17          6.5780    -1.0050     1.7960 h1         1 EVR       0.034200
     66 H18          6.6150     0.4370    -2.1030 h1         1 EVR       0.034200
     67 H19          6.8120    -1.2940    -1.8610 h1         1 EVR       0.034200
     68 H20         10.8900    -3.1110    -0.3740 h1         1 EVR       0.037200
     69 H21         11.1420    -2.3140     1.1800 h1         1 EVR       0.037200
     70 H22         11.0770     0.2300     1.1940 h1         1 EVR       0.037200
     71 H23         10.7720     1.0420    -0.3400 h1         1 EVR       0.037200
     72 H24         13.2730    -3.0410     0.2940 h1         1 EVR       0.035200
     73 H25         12.9760    -2.2510    -1.2590 h1         1 EVR       0.035200
     74 H26         12.8940     0.2980    -1.2560 h1         1 EVR       0.035200
     75 H27         13.1510     1.1000     0.2980 h1         1 EVR       0.035200
     76 H28          8.9620    -2.1240    -0.8210 h1         1 EVR       0.048700
     77 H29         -9.9390     1.7210    -0.8630 hc         1 EVR       0.043367
     78 H30        -10.0200     1.5260     0.8900 hc         1 EVR       0.043367
     79 H31         -9.8510     3.1370     0.1790 hc         1 EVR       0.043367
     80 H32         15.2260    -0.0280     0.6580 h1         1 EVR       0.029033
     81 H33         15.2790    -1.7910     0.6590 h1         1 EVR       0.029033
     82 H34         15.1130    -0.9140    -0.8700 h1         1 EVR       0.029033
     83 H35        -10.8340    -2.6660    -0.6820 h1         1 EVR       0.039533
     84 H36        -10.5920    -2.2610     1.0320 h1         1 EVR       0.039533
     85 H37        -11.0440    -0.9970    -0.1260 h1         1 EVR       0.039533
     86 H38         -9.2390    -6.0350     1.6860 h1         1 EVR       0.039533
     87 H39         -9.5110    -6.4080    -0.0300 h1         1 EVR       0.039533
     88 H40         -8.7100    -7.5890     1.0190 h1         1 EVR       0.039533
     89 H41          5.7720     4.0750    -1.4100 h1         1 EVR       0.039033
     90 H42          4.2840     3.3980    -2.0910 h1         1 EVR       0.039033
     91 H43          4.3250     3.9310    -0.3960 h1         1 EVR       0.039033
     92 H44         -3.8120    -3.2410    -1.1020 hc         1 EVR       0.050700
     93 H45         -4.4180    -1.6000    -1.1670 hc         1 EVR       0.050700
     94 H46         -3.4660    -3.1610     1.2780 hc         1 EVR       0.062200
     95 H47         -4.4090    -1.7170     1.4680 hc         1 EVR       0.062200
     96 H48         -7.7910     0.8820     0.0330 h1         1 EVR       0.056200
     97 H49         -7.5900     2.4550    -0.7370 h1         1 EVR       0.056200
     98 H52         -4.4030     0.1970     0.7730 hn         1 EVR       0.544000
     99 H53          0.7130     1.6560    -0.2750 hn         1 EVR       0.507000
    100 H54         -7.7830     3.3940     1.6060 hn         1 EVR       0.485000
    101 C53         -3.7100    -2.2150     0.7890 c3         1 EVR      -0.015100
    102 N41         -7.5200     2.4400     1.3830 n7         1 EVR      -0.880300
    103 O42         -5.8890     0.6220     1.8350 o          1 EVR      -0.539500
    104 C31         14.8120    -0.9220     0.1900 c3         1 EVR       0.155100
    105 O43         -5.7320     2.8120     3.0560 o          1 EVR      -0.539500
@<TRIPOS>BOND
     1     1     2 ar  
     2     1     4 ar  
     3     1    49 1   
     4     2     6 ar  
     5     2    50 1   
     6     3     5 ar  
     7     3    14 ar  
     8     3    51 1   
     9     4    16 ar  
    10     4    52 1   
    11     5    15 ar  
    12     5    53 1   
    13     6    20 ar  
    14     6    54 1   
    15     7    12 ar  
    16     7    17 ar  
    17     7    55 1   
    18     8    12 ar  
    19     8    18 ar  
    20     8    56 1   
    21     9    15 ar  
    22     9    19 ar  
    23     9    57 1   
    24    10    17 ar  
    25    10    18 ar  
    26    10    58 1   
    27    11    13 ar  
    28    11    38 ar  
    29    11    59 1   
    30    12    36 1   
    31    13    21 ar  
    32    13   101 1   
    33    14    19 ar  
    34    14    40 1   
    35    15    44 1   
    36    16    20 ar  
    37    16    43 1   
    38    17    45 1   
    39    18    46 1   
    40    19    47 1   
    41    20    48 1   
    42    21    39 ar  
    43    21    43 1   
    44    22    38 ar  
    45    22    39 ar  
    46    22    44 1   
    47    23    25 1   
    48    23    31 1   
    49    23    60 1   
    50    23    61 1   
    51    24    26 1   
    52    24    31 1   
    53    24    62 1   
    54    24    63 1   
    55    25    40 1   
    56    25    64 1   
    57    25    65 1   
    58    26    40 1   
    59    26    66 1   
    60    26    67 1   
    61    27    29 1   
    62    27    41 1   
    63    27    68 1   
    64    27    69 1   
    65    28    30 1   
    66    28    41 1   
    67    28    70 1   
    68    28    71 1   
    69    29    42 1   
    70    29    72 1   
    71    29    73 1   
    72    30    42 1   
    73    30    74 1   
    74    30    75 1   
    75    31    41 1   
    76    31    76 1   
    77    32    37 1   
    78    32    77 1   
    79    32    78 1   
    80    32    79 1   
    81    33    45 1   
    82    33    83 1   
    83    33    84 1   
    84    33    85 1   
    85    34    46 1   
    86    34    86 1   
    87    34    87 1   
    88    34    88 1   
    89    35    47 1   
    90    35    89 1   
    91    35    90 1   
    92    35    91 1   
    93    36    92 1   
    94    36    93 1   
    95    36   101 1   
    96    37    96 1   
    97    37    97 1   
    98    37   102 1   
    99    42   104 1   
   100    43    98 1   
   101    44    99 1   
   102    48   102 1   
   103    48   103 2   
   104    48   105 2   
   105    80   104 1   
   106    81   104 1   
   107    82   104 1   
   108    94   101 1   
   109    95   101 1   
   110   100   102 1   
@<TRIPOS>SUBSTRUCTURE
     1 EVR         1 TEMP              0 ****  ****    0 ROOT
