@<TRIPOS>MOLECULE
EVR
  105   110     1     0     0
SMALL
No Charge or Current Charge


@<TRIPOS>ATOM
      1 C39         -3.3310     4.9350    -0.4030 ca         1 EVR      -0.038000
      2 C34         -4.1960     5.5830     0.4900 ca         1 EVR      -0.151000
      3 C17          3.9680    -1.1080     0.4990 ca         1 EVR      -0.097000
      4 C38         -3.1570     3.5450    -0.3170 ca         1 EVR      -0.145000
      5 C18          2.6200    -0.7270     0.5970 ca         1 EVR      -0.155000
      6 C35         -4.8830     4.8420     1.4640 ca         1 EVR      -0.021000
      7 C3          -6.9510    -2.5390    -1.5290 ca         1 EVR      -0.175000
      8 C7          -6.3650    -3.7710     0.4740 ca         1 EVR      -0.175000
      9 C14          3.0780     1.2740    -0.6870 ca         1 EVR      -0.255000
     10 C5          -8.6200    -3.9260    -0.4300 ca         1 EVR      -0.284000
     11 C50         -1.6480    -1.6400     0.3550 ca         1 EVR       0.162900
     12 C2          -5.9970    -2.8840    -0.5540 ca         1 EVR      -0.009300
     13 C49         -2.8100    -0.8610     0.5120 ca         1 EVR      -0.270300
     14 C16          4.8960    -0.3080    -0.1990 ca         1 EVR       0.200000
     15 C13          2.1680     0.4570    -0.0070 ca         1 EVR       0.342000
     16 C37         -3.8310     2.7910     0.6630 ca         1 EVR       0.425000
     17 C4          -8.2560    -3.0470    -1.4700 ca         1 EVR       0.177600
     18 C6          -7.6660    -4.2910     0.5430 ca         1 EVR       0.177600
     19 C15          4.4390     0.9030    -0.7960 ca         1 EVR       0.166100
     20 C36         -4.7050     3.4440     1.5520 ca         1 EVR      -0.355500
     21 C45         -2.6290     0.5390     0.5090 ca         1 EVR       0.423900
     22 C47         -0.3800     0.2560     0.2440 ca         1 EVR       0.416900
     23 C21          8.4510    -1.0740     0.8590 c6         1 EVR      -0.092400
     24 C23          8.3460    -0.7340    -1.6490 c6         1 EVR      -0.092400
     25 C20          6.9360    -1.3850     0.8590 c6         1 EVR       0.190800
     26 C24          6.8380    -1.0660    -1.6130 c6         1 EVR       0.190800
     27 C26         11.3390    -2.1910     0.3180 c6         1 EVR       0.172800
     28 C30         11.0380     0.1510    -0.3620 c6         1 EVR       0.172800
     29 C27         12.8860    -2.0410     0.1460 c6         1 EVR       0.164300
     30 C29         12.5870     0.2960    -0.5260 c6         1 EVR       0.164300
     31 C22          9.0930    -1.4640    -0.5030 c6         1 EVR       0.191500
     32 C52         -7.7850     0.4990     0.1850 c3         1 EVR      -0.090100
     33 C11        -10.5080    -3.1010    -2.4820 c3         1 EVR       0.151400
     34 C10         -9.2590    -5.7400     1.7520 c3         1 EVR       0.151400
     35 C33          4.9770     2.9500    -2.0930 c3         1 EVR       0.144900
     36 C1          -4.5840    -2.3090    -0.6230 c3         1 EVR      -0.033100
     37 C44         -7.2350     1.7450     0.8920 c3         1 EVR       0.203800
     38 N46         -0.4320    -1.0850     0.2150 nb         1 EVR      -0.248000
     39 N48         -1.4140     1.0930     0.3780 nb         1 EVR      -0.316000
     40 N19          6.2550    -0.7250    -0.2880 nh         1 EVR      -0.758400
     41 N25         10.5780    -1.2620    -0.5770 n3         1 EVR      -0.734600
     42 N28         13.3480    -0.6350     0.3620 n3         1 EVR      -0.719600
     43 N51         -3.6930     1.4090     0.6900 nu         1 EVR      -0.957900
     44 N12          0.8440     0.8860     0.0750 nu         1 EVR      -0.927900
     45 O8          -9.1410    -2.6530    -2.4520 os         1 EVR      -0.346100
     46 O9          -7.9570    -5.1510     1.5810 os         1 EVR      -0.346100
     47 O32          5.3500     1.7120    -1.4640 os         1 EVR      -0.323100
     48 S40         -5.5710     2.5450     2.8350 sy         1 EVR       1.157600
     49 H1          -2.8050     5.5050    -1.1650 ha         1 EVR       0.116000
     50 H2          -4.3360     6.6590     0.4270 ha         1 EVR       0.120000
     51 H3           4.2890    -2.0360     0.9640 ha         1 EVR       0.116000
     52 H4          -2.5110     3.0480    -1.0330 ha         1 EVR       0.140000
     53 H5           1.9370    -1.3540     1.1600 ha         1 EVR       0.152000
     54 H6          -5.5490     5.3630     2.1500 ha         1 EVR       0.106000
     55 H7          -6.6850    -1.8600    -2.3350 ha         1 EVR       0.125000
     56 H8          -5.6400    -4.0650     1.2280 ha         1 EVR       0.125000
     57 H9           2.7140     2.1930    -1.1340 ha         1 EVR       0.114000
     58 H10         -9.6270    -4.3230    -0.3800 ha         1 EVR       0.119000
     59 H11         -1.6910    -2.7280     0.3420 h4         1 EVR       0.023100
     60 H12          8.5920    -0.0040     1.0590 hc         1 EVR       0.052700
     61 H13          8.9220    -1.6180     1.6860 hc         1 EVR       0.052700
     62 H14          8.7640    -1.0300    -2.6200 hc         1 EVR       0.052700
     63 H15          8.4680     0.3530    -1.5660 hc         1 EVR       0.052700
     64 H16          6.7870    -2.4740     0.8090 h1         1 EVR       0.034200
     65 H17          6.5050    -1.0350     1.8090 h1         1 EVR       0.034200
     66 H18          6.3320    -0.5110    -2.4170 h1         1 EVR       0.034200
     67 H19          6.6950    -2.1370    -1.8190 h1         1 EVR       0.034200
     68 H20         11.0630    -3.2350     0.1090 h1         1 EVR       0.037200
     69 H21         11.0970    -1.9980     1.3730 h1         1 EVR       0.037200
     70 H22         10.7700     0.4940     0.6470 h1         1 EVR       0.037200
     71 H23         10.5580     0.8350    -1.0750 h1         1 EVR       0.037200
     72 H24         13.3850    -2.7180     0.8540 h1         1 EVR       0.035200
     73 H25         13.1580    -2.3770    -0.8660 h1         1 EVR       0.035200
     74 H26         12.8440     0.1060    -1.5790 h1         1 EVR       0.035200
     75 H27         12.8650     1.3380    -0.3120 h1         1 EVR       0.035200
     76 H28          8.8990    -2.5390    -0.6480 h1         1 EVR       0.048700
     77 H29         -8.5070     0.7880    -0.5880 hc         1 EVR       0.043367
     78 H30         -6.9700    -0.0500    -0.2990 hc         1 EVR       0.043367
     79 H31         -8.2870    -0.1690     0.8940 hc         1 EVR       0.043367
     80 H32         15.1190     0.5450     0.4410 h1         1 EVR       0.029033
     81 H33         15.3360    -1.1490     0.9280 h1         1 EVR       0.029033
     82 H34         15.1390    -0.7380    -0.7930 h1         1 EVR       0.029033
     83 H35        -10.5580    -4.1930    -2.5720 h1         1 EVR       0.039533
     84 H36        -11.0380    -2.7960    -1.5710 h1         1 EVR       0.039533
     85 H37        -11.0310    -2.6650    -3.3420 h1         1 EVR       0.039533
     86 H38        -10.0230    -4.9650     1.8890 h1         1 EVR       0.039533
     87 H39         -9.5270    -6.3510     0.8800 h1         1 EVR       0.039533
     88 H40         -9.2690    -6.3880     2.6370 h1         1 EVR       0.039533
     89 H41          5.8540     3.4160    -2.5600 h1         1 EVR       0.039033
     90 H42          4.2270     2.7790    -2.8750 h1         1 EVR       0.039033
     91 H43          4.5690     3.6550    -1.3580 h1         1 EVR       0.039033
     92 H44         -3.8710    -3.1190    -0.8160 hc         1 EVR       0.050700
     93 H45         -4.4990    -1.6180    -1.4700 hc         1 EVR       0.050700
     94 H46         -4.1160    -2.2670     1.4950 hc         1 EVR       0.062200
     95 H47         -4.9620    -0.8530     0.9250 hc         1 EVR       0.062200
     96 H48         -6.7310     2.3720     0.1430 h1         1 EVR       0.056200
     97 H49         -8.0730     2.3250     1.3040 h1         1 EVR       0.056200
     98 H52         -4.5210     0.9620     1.0910 hn         1 EVR       0.544000
     99 H53          0.7300     1.8810    -0.1050 hn         1 EVR       0.507000
    100 H54         -6.8360     0.8680     2.6890 hn         1 EVR       0.485000
    101 C53         -4.1670    -1.5560     0.6620 c3         1 EVR      -0.015100
    102 N41         -6.3020     1.3330     1.9540 n7         1 EVR      -0.880300
    103 O42         -4.5900     1.8480     3.6660 o          1 EVR      -0.539500
    104 C31         14.8120    -0.4870     0.2260 c3         1 EVR       0.155100
    105 O43         -6.6470     3.3540     3.4090 o          1 EVR      -0.539500
@<TRIPOS>BOND
     1     1     2 ar  
     2     1     4 ar  
     3     1    49 1   
     4     2     6 ar  
     5     2    50 1   
     6     3     5 ar  
     7     3    14 ar  
     8     3    51 1   
     9     4    16 ar  
    10     4    52 1   
    11     5    15 ar  
    12     5    53 1   
    13     6    20 ar  
    14     6    54 1   
    15     7    12 ar  
    16     7    17 ar  
    17     7    55 1   
    18     8    12 ar  
    19     8    18 ar  
    20     8    56 1   
    21     9    15 ar  
    22     9    19 ar  
    23     9    57 1   
    24    10    17 ar  
    25    10    18 ar  
    26    10    58 1   
    27    11    13 ar  
    28    11    38 ar  
    29    11    59 1   
    30    12    36 1   
    31    13    21 ar  
    32    13   101 1   
    33    14    19 ar  
    34    14    40 1   
    35    15    44 1   
    36    16    20 ar  
    37    16    43 1   
    38    17    45 1   
    39    18    46 1   
    40    19    47 1   
    41    20    48 1   
    42    21    39 ar  
    43    21    43 1   
    44    22    38 ar  
    45    22    39 ar  
    46    22    44 1   
    47    23    25 1   
    48    23    31 1   
    49    23    60 1   
    50    23    61 1   
    51    24    26 1   
    52    24    31 1   
    53    24    62 1   
    54    24    63 1   
    55    25    40 1   
    56    25    64 1   
    57    25    65 1   
    58    26    40 1   
    59    26    66 1   
    60    26    67 1   
    61    27    29 1   
    62    27    41 1   
    63    27    68 1   
    64    27    69 1   
    65    28    30 1   
    66    28    41 1   
    67    28    70 1   
    68    28    71 1   
    69    29    42 1   
    70    29    72 1   
    71    29    73 1   
    72    30    42 1   
    73    30    74 1   
    74    30    75 1   
    75    31    41 1   
    76    31    76 1   
    77    32    37 1   
    78    32    77 1   
    79    32    78 1   
    80    32    79 1   
    81    33    45 1   
    82    33    83 1   
    83    33    84 1   
    84    33    85 1   
    85    34    46 1   
    86    34    86 1   
    87    34    87 1   
    88    34    88 1   
    89    35    47 1   
    90    35    89 1   
    91    35    90 1   
    92    35    91 1   
    93    36    92 1   
    94    36    93 1   
    95    36   101 1   
    96    37    96 1   
    97    37    97 1   
    98    37   102 1   
    99    42   104 1   
   100    43    98 1   
   101    44    99 1   
   102    48   102 1   
   103    48   103 2   
   104    48   105 2   
   105    80   104 1   
   106    81   104 1   
   107    82   104 1   
   108    94   101 1   
   109    95   101 1   
   110   100   102 1   
@<TRIPOS>SUBSTRUCTURE
     1 EVR         1 TEMP              0 ****  ****    0 ROOT
