@<TRIPOS>MOLECULE
EVS
   42    46     1     0     0
SMALL
bcc


@<TRIPOS>ATOM
      1 CAA          5.4390     0.4940     1.0620 c3         1 EVS      -0.057900
      2 CAE          4.7060    -0.2590    -0.0030 c2         1 EVS      -0.146200
      3 CAP          3.3960    -0.4740    -0.0820 c2         1 EVS      -0.165400
      4 CAK          2.7460    -1.2490    -1.2120 c6         1 EVS       0.186000
      5 NAY          1.3170    -0.9620    -1.2630 n3         1 EVS      -0.674600
      6 CAX          1.1100     0.4840    -1.2970 c6         1 EVS       0.183500
      7 CAL         -0.3290     0.7830    -1.7000 c6         1 EVS       0.001800
      8 CAR         -1.2260    -0.0010    -0.8090 cc         1 EVS      -0.129400
      9 CAU         -2.6070     0.1460    -0.4670 ca         1 EVS      -0.084800
     10 CAJ         -3.6200     1.0280    -0.8540 ca         1 EVS      -0.073000
     11 CAH         -4.8790     0.8860    -0.2990 ca         1 EVS      -0.159000
     12 CAG         -5.1480    -0.1260     0.6350 ca         1 EVS      -0.108000
     13 CAI         -4.1660    -1.0160     1.0330 ca         1 EVS      -0.150000
     14 CAT         -2.9000    -0.8670     0.4750 ca         1 EVS      -0.043200
     15 NAN         -1.7550    -1.5890     0.6760 na         1 EVS      -0.170400
     16 CAS         -0.7530    -1.0580    -0.0880 cd         1 EVS      -0.070300
     17 CAW          0.6560    -1.5420    -0.0910 c6         1 EVS       0.224700
     18 CAM          1.4180    -1.1420     1.2020 c6         1 EVS      -0.104400
     19 CAV          2.3360     0.0390     0.8550 c6         1 EVS      -0.017500
     20 CAZ          1.5570     1.1220     0.0770 c6         1 EVS      -0.210700
     21 CAF          0.4430     1.7140     0.9010 c          1 EVS       0.591900
     22 OAC          0.0260     2.8380     0.7470 o          1 EVS      -0.520100
     23 HAA          5.7600     1.4740     0.7000 hc         1 EVS       0.041700
     24 HAAA         4.8410     0.6540     1.9580 hc         1 EVS       0.041700
     25 HAAB         6.3440    -0.0390     1.3580 hc         1 EVS       0.041700
     26 HAE          5.3260    -0.6660    -0.7980 ha         1 EVS       0.119000
     27 HAK          3.1950    -0.9940    -2.1750 h1         1 EVS       0.064200
     28 HAKA         2.8740    -2.3280    -1.0810 h1         1 EVS       0.064200
     29 HAX          1.7740     0.8800    -2.0680 h1         1 EVS       0.066700
     30 HAL         -0.5300     1.8550    -1.6420 hc         1 EVS       0.064200
     31 HALA        -0.4610     0.5060    -2.7500 hc         1 EVS       0.064200
     32 HAJ         -3.4250     1.8120    -1.5770 ha         1 EVS       0.135000
     33 HAH         -5.6720     1.5630    -0.5890 ha         1 EVS       0.129000
     34 HAG         -6.1430    -0.2120     1.0530 ha         1 EVS       0.127000
     35 HAI         -4.3750    -1.7970     1.7530 ha         1 EVS       0.129000
     36 HNAN        -1.6510    -2.3380     1.3410 hn         1 EVS       0.297700
     37 HAW          0.6660    -2.6310    -0.2020 h1         1 EVS       0.073700
     38 HAM          0.7300    -0.8980     2.0130 hc         1 EVS       0.051700
     39 HAMA         2.0250    -1.9730     1.5630 hc         1 EVS       0.051700
     40 HAV          2.7650     0.4620     1.7650 hc         1 EVS       0.065700
     41 HAZ          2.2340     1.9480    -0.1550 hc         1 EVS       0.077700
     42 HAF          0.0310     1.0810     1.7060 h4         1 EVS      -0.008800
@<TRIPOS>BOND
     1     1     2 1   
     2     1    23 1   
     3     1    24 1   
     4     1    25 1   
     5     2     3 2   
     6     2    26 1   
     7     3     4 1   
     8     3    19 1   
     9     4     5 1   
    10     4    27 1   
    11     4    28 1   
    12     5     6 1   
    13     5    17 1   
    14     6     7 1   
    15     6    20 1   
    16     6    29 1   
    17     7     8 1   
    18     7    30 1   
    19     7    31 1   
    20     8     9 1   
    21     8    16 2   
    22     9    10 ar  
    23     9    14 ar  
    24    10    11 ar  
    25    10    32 1   
    26    11    12 ar  
    27    11    33 1   
    28    12    13 ar  
    29    12    34 1   
    30    13    14 ar  
    31    13    35 1   
    32    14    15 1   
    33    15    16 1   
    34    15    36 1   
    35    16    17 1   
    36    17    18 1   
    37    17    37 1   
    38    18    19 1   
    39    18    38 1   
    40    18    39 1   
    41    19    20 1   
    42    19    40 1   
    43    20    21 1   
    44    20    41 1   
    45    21    22 2   
    46    21    42 1   
@<TRIPOS>SUBSTRUCTURE
     1 EVS         1 TEMP              0 ****  ****    0 ROOT
