@<TRIPOS>MOLECULE
EVS
   42    46     1     0     0
SMALL
No Charge or Current Charge


@<TRIPOS>ATOM
      1 CAA          5.6010     0.2200     1.1390 c3         1 EVS      -0.057900
      2 CAE          4.7830    -0.4530     0.0500 c2         1 EVS      -0.196200
      3 CAP          3.4460    -0.4560    -0.1130 c2         1 EVS      -0.165400
      4 CAK          2.7680    -1.1540    -1.2950 c6         1 EVS       0.186000
      5 NAY          1.3000    -0.8870    -1.2860 n3         1 EVS      -0.674600
      6 CAX          1.0540     0.5940    -1.3290 c6         1 EVS       0.183500
      7 CAL         -0.4660     0.8740    -1.5730 c6         1 EVS       0.001800
      8 CAR         -1.3210     0.0050    -0.6820 cc         1 EVS      -0.129400
      9 CAU         -2.7190     0.0360    -0.3730 ca         1 EVS      -0.084800
     10 CAJ         -3.7220     0.9200    -0.7940 ca         1 EVS      -0.055000
     11 CAH         -5.0320     0.7040    -0.3150 ca         1 EVS      -0.141000
     12 CAG         -5.3040    -0.3750     0.5600 ca         1 EVS      -0.090000
     13 CAI         -4.2680    -1.2450     0.9630 ca         1 EVS      -0.132000
     14 CAT         -2.9770    -1.0070     0.4730 ca         1 EVS      -0.043200
     15 NAN         -1.8230    -1.7270     0.7340 na         1 EVS      -0.220700
     16 CAS         -0.7960    -1.0860     0.0010 cd         1 EVS      -0.070300
     17 CAW          0.6800    -1.4590    -0.0410 c6         1 EVS       0.224700
     18 CAM          1.4100    -0.8960     1.2210 c6         1 EVS      -0.104400
     19 CAV          2.4140     0.2140     0.7970 c6         1 EVS      -0.017500
     20 CAZ          1.6860     1.3050    -0.0580 c6         1 EVS      -0.210700
     21 CAF          0.6620     2.0730     0.7980 c          1 EVS       0.591900
     22 OAC          0.7350     3.2840     0.9770 o          1 EVS      -0.520100
     23 HAA          6.4130     0.8110     0.6990 hc         1 EVS       0.041700
     24 HAAA         5.0160     0.9000     1.7650 hc         1 EVS       0.041700
     25 HAAB         6.0590    -0.5270     1.7980 hc         1 EVS       0.041700
     26 HAE          5.4050    -0.9740    -0.6810 ha         1 EVS       0.169000
     27 HAK          3.2160    -0.7940    -2.2340 h1         1 EVS       0.064200
     28 HAKA         2.9640    -2.2360    -1.2430 h1         1 EVS       0.064200
     29 HAX          1.5770     1.0070    -2.2050 h1         1 EVS       0.066700
     30 HAL         -0.7000     1.9410    -1.4580 hc         1 EVS       0.064200
     31 HALA        -0.6950     0.6390    -2.6210 hc         1 EVS       0.064200
     32 HAJ         -3.4980     1.7450    -1.4660 ha         1 EVS       0.117000
     33 HAH         -5.8350     1.3700    -0.6210 ha         1 EVS       0.111000
     34 HAG         -6.3170    -0.5340     0.9240 ha         1 EVS       0.109000
     35 HAI         -4.4690    -2.0760     1.6360 ha         1 EVS       0.111000
     36 HNAN        -1.7310    -2.5430     1.3290 hn         1 EVS       0.348000
     37 HAW          0.7690    -2.5570    -0.0430 h1         1 EVS       0.073700
     38 HAM          0.6940    -0.5240     1.9650 hc         1 EVS       0.051700
     39 HAMA         1.9570    -1.7090     1.7160 hc         1 EVS       0.051700
     40 HAV          2.8690     0.6620     1.6880 hc         1 EVS       0.065700
     41 HAZ          2.4240     2.0420    -0.4000 hc         1 EVS       0.077700
     42 HAF         -0.1550     1.4820     1.2660 h4         1 EVS      -0.008800
@<TRIPOS>BOND
     1     1     2 1   
     2     1    23 1   
     3     1    24 1   
     4     1    25 1   
     5     2     3 2   
     6     2    26 1   
     7     3     4 1   
     8     3    19 1   
     9     4     5 1   
    10     4    27 1   
    11     4    28 1   
    12     5     6 1   
    13     5    17 1   
    14     6     7 1   
    15     6    20 1   
    16     6    29 1   
    17     7     8 1   
    18     7    30 1   
    19     7    31 1   
    20     8     9 1   
    21     8    16 2   
    22     9    10 ar  
    23     9    14 ar  
    24    10    11 ar  
    25    10    32 1   
    26    11    12 ar  
    27    11    33 1   
    28    12    13 ar  
    29    12    34 1   
    30    13    14 ar  
    31    13    35 1   
    32    14    15 1   
    33    15    16 1   
    34    15    36 1   
    35    16    17 1   
    36    17    18 1   
    37    17    37 1   
    38    18    19 1   
    39    18    38 1   
    40    18    39 1   
    41    19    20 1   
    42    19    40 1   
    43    20    21 1   
    44    20    41 1   
    45    21    22 2   
    46    21    42 1   
@<TRIPOS>SUBSTRUCTURE
     1 EVS         1 TEMP              0 ****  ****    0 ROOT
