@<TRIPOS>MOLECULE
EVT
   79    78     1     0     0
SMALL
No Charge or Current Charge


@<TRIPOS>ATOM
      1 C7           4.1120    -0.9220     0.3350 c          1 EVT       0.598100
      2 C9           3.7050     0.5190     0.6700 c3         1 EVT      -0.164400
      3 C10          4.3640     1.5310    -0.3010 c3         1 EVT      -0.061400
      4 C11          4.0930     3.0200     0.0400 c3         1 EVT      -0.046300
      5 C13         -0.5660     2.4410     0.8070 c3         1 EVT      -0.060400
      6 C14         -2.0410     2.7340     0.4570 c3         1 EVT      -0.078400
      7 O8           3.6550    -1.5240    -0.6270 o          1 EVT      -0.646100
      8 C15         -2.9400     1.4810     0.5300 c3         1 EVT      -0.074400
      9 N6           4.9950    -1.4930     1.2260 ns         1 EVT      -0.451900
     10 C16         -4.4150     1.7740     0.1790 c3         1 EVT      -0.075400
     11 C17         -5.3160     0.5220     0.2520 c3         1 EVT      -0.074400
     12 C18         -6.7900     0.8160    -0.1010 c3         1 EVT      -0.074400
     13 C19         -7.6920    -0.4350    -0.0270 c3         1 EVT      -0.074400
     14 C20         -9.1660    -0.1400    -0.3800 c3         1 EVT      -0.074400
     15 C21        -10.0680    -1.3910    -0.3040 c3         1 EVT      -0.074400
     16 C22        -11.5420    -1.0960    -0.6570 c3         1 EVT      -0.074400
     17 C23          4.8920     3.9740    -0.9020 c          1 EVT       0.717000
     18 O24          4.5200     4.0970    -2.0620 o          1 EVT      -0.741000
     19 N25          2.6470     3.3480    -0.0070 ns         1 EVT      -0.439900
     20 C26          1.7900     3.3620     1.0730 c          1 EVT       0.602100
     21 O26          5.8060     4.6280    -0.4210 o          1 EVT      -0.741000
     22 O27          2.1640     3.1570     2.2200 o          1 EVT      -0.643100
     23 C29        -12.4450    -2.3470    -0.5800 c3         1 EVT      -0.074400
     24 C30        -13.9190    -2.0510    -0.9340 c3         1 EVT      -0.076400
     25 C31        -14.8210    -3.3020    -0.8570 c3         1 EVT      -0.075400
     26 C32        -16.2920    -3.0080    -1.2100 c3         1 EVT      -0.088100
     27 C33          8.4480    -2.4740    -1.5610 c          1 EVT       0.711000
     28 O34          9.2470    -1.5660    -1.3930 o          1 EVT      -0.769000
     29 C36          6.9830    -2.8480     0.4740 c3         1 EVT      -0.055400
     30 C37          5.5710    -2.8570     1.1200 c3         1 EVT      -0.038300
     31 C38          5.5940    -3.5460     2.5220 c          1 EVT       0.720000
     32 O39          5.0240    -4.6220     2.6480 o          1 EVT      -0.753000
     33 O40          6.1050    -2.9500     3.4610 o          1 EVT      -0.753000
     34 H93          2.6160     0.6030     0.5810 hc         1 EVT       0.041700
     35 H92          4.0160     0.7690     1.6910 hc         1 EVT       0.041700
     36 H103         5.4500     1.3670    -0.2950 hc         1 EVT       0.058200
     37 H102         4.0240     1.3250    -1.3240 hc         1 EVT       0.058200
     38 H11          4.4560     3.2090     1.0580 h1         1 EVT       0.058700
     39 H122         0.2700     4.1080    -0.2830 hc         1 EVT       0.050200
     40 H123        -0.0380     4.4340     1.4550 hc         1 EVT       0.050200
     41 H133        -0.1760     1.6790     0.1200 hc         1 EVT       0.046700
     42 H132        -0.5120     2.0170     1.8170 hc         1 EVT       0.046700
     43 H143        -2.4300     3.4960     1.1440 hc         1 EVT       0.032700
     44 H142        -2.0950     3.1570    -0.5540 hc         1 EVT       0.032700
     45 H153        -2.5520     0.7180    -0.1560 hc         1 EVT       0.035200
     46 H152        -2.8880     1.0580     1.5410 hc         1 EVT       0.035200
     47 H6           5.2830    -0.9190     2.0100 hn         1 EVT       0.289500
     48 H163        -4.8040     2.5370     0.8650 hc         1 EVT       0.035700
     49 H162        -4.4670     2.1970    -0.8330 hc         1 EVT       0.035700
     50 H173        -4.9270    -0.2420    -0.4340 hc         1 EVT       0.034700
     51 H172        -5.2650     0.1000     1.2630 hc         1 EVT       0.034700
     52 H183        -7.1780     1.5810     0.5840 hc         1 EVT       0.036700
     53 H182        -6.8410     1.2380    -1.1130 hc         1 EVT       0.036700
     54 H193        -7.3040    -1.2000    -0.7120 hc         1 EVT       0.035200
     55 H192        -7.6410    -0.8560     0.9850 hc         1 EVT       0.035200
     56 H203        -9.5540     0.6250     0.3050 hc         1 EVT       0.036700
     57 H202        -9.2170     0.2800    -1.3920 hc         1 EVT       0.036700
     58 H213        -9.6800    -2.1570    -0.9880 hc         1 EVT       0.035700
     59 H212       -10.0170    -1.8110     0.7080 hc         1 EVT       0.035700
     60 H223       -11.9300    -0.3300     0.0270 hc         1 EVT       0.036700
     61 H222       -11.5930    -0.6770    -1.6700 hc         1 EVT       0.036700
     62 H25          2.2410     3.5660    -0.9100 hn         1 EVT       0.293500
     63 H293       -12.0570    -3.1130    -1.2640 hc         1 EVT       0.036200
     64 H292       -12.3940    -2.7660     0.4320 hc         1 EVT       0.036200
     65 H303       -14.3070    -1.2850    -0.2500 hc         1 EVT       0.036700
     66 H302       -13.9700    -1.6320    -1.9470 hc         1 EVT       0.036700
     67 H313       -14.4380    -4.0700    -1.5400 hc         1 EVT       0.035700
     68 H312       -14.7750    -3.7230     0.1550 hc         1 EVT       0.035700
     69 H321       -16.7160    -2.2670    -0.5210 hc         1 EVT       0.028700
     70 H323       -16.3750    -2.6190    -2.2320 hc         1 EVT       0.028700
     71 H322       -16.8920    -3.9230    -1.1410 hc         1 EVT       0.028700
     72 H353         6.7570    -1.2540    -0.9290 hc         1 EVT       0.014200
     73 H352         6.3150    -2.9270    -1.5480 hc         1 EVT       0.014200
     74 H363         7.3700    -3.8750     0.4840 hc         1 EVT       0.043200
     75 H362         7.6630    -2.2530     1.0970 hc         1 EVT       0.043200
     76 H37          4.9110    -3.4610     0.4840 h1         1 EVT       0.049700
     77 OXT          8.7310    -3.5220    -2.1210 o          1 EVT      -0.769000
     78 C35          7.0290    -2.3160    -0.9820 c3         1 EVT      -0.199400
     79 C12          0.3330     3.6980     0.7330 c3         1 EVT      -0.167400
@<TRIPOS>BOND
     1     1     2 1   
     2     1     7 2   
     3     1     9 1   
     4     2     3 1   
     5     2    34 1   
     6     2    35 1   
     7     3     4 1   
     8     3    36 1   
     9     3    37 1   
    10     4    17 1   
    11     4    19 1   
    12     4    38 1   
    13     5     6 1   
    14     5    41 1   
    15     5    42 1   
    16     5    79 1   
    17     6     8 1   
    18     6    43 1   
    19     6    44 1   
    20     8    10 1   
    21     8    45 1   
    22     8    46 1   
    23     9    30 1   
    24     9    47 1   
    25    10    11 1   
    26    10    48 1   
    27    10    49 1   
    28    11    12 1   
    29    11    50 1   
    30    11    51 1   
    31    12    13 1   
    32    12    52 1   
    33    12    53 1   
    34    13    14 1   
    35    13    54 1   
    36    13    55 1   
    37    14    15 1   
    38    14    56 1   
    39    14    57 1   
    40    15    16 1   
    41    15    58 1   
    42    15    59 1   
    43    16    23 1   
    44    16    60 1   
    45    16    61 1   
    46    17    18 1   
    47    17    21 1   
    48    19    20 1   
    49    19    62 1   
    50    20    22 2   
    51    20    79 1   
    52    23    24 1   
    53    23    63 1   
    54    23    64 1   
    55    24    25 1   
    56    24    65 1   
    57    24    66 1   
    58    25    26 1   
    59    25    67 1   
    60    25    68 1   
    61    26    69 1   
    62    26    70 1   
    63    26    71 1   
    64    27    28 1   
    65    27    77 1   
    66    27    78 1   
    67    29    30 1   
    68    29    74 1   
    69    29    75 1   
    70    29    78 1   
    71    30    31 1   
    72    30    76 1   
    73    31    32 1   
    74    31    33 1   
    75    39    79 1   
    76    40    79 1   
    77    72    78 1   
    78    73    78 1   
@<TRIPOS>SUBSTRUCTURE
     1 EVT         1 TEMP              0 ****  ****    0 ROOT
