@<TRIPOS>MOLECULE
EVT
   79    78     1     0     0
SMALL
bcc


@<TRIPOS>ATOM
      1 C7           6.0830     0.0130    -0.6940 c          1 EVT       0.665100
      2 C9           4.9500     0.6960     0.0430 c3         1 EVT      -0.164400
      3 C10          4.9810     2.2120    -0.0860 c3         1 EVT      -0.061400
      4 C11          3.8330     2.9040     0.6450 c3         1 EVT      -0.046300
      5 C13         -1.1100     2.3140     0.6220 c3         1 EVT      -0.060400
      6 C14         -2.2960     2.0210    -0.2880 c3         1 EVT      -0.078400
      7 O8           6.6420     0.5280    -1.6550 o          1 EVT      -0.646100
      8 C15         -3.6040     1.8380     0.4730 c3         1 EVT      -0.074400
      9 N6           6.4300    -1.1930    -0.2190 ns         1 EVT      -0.518900
     10 C16         -4.7590     1.4020    -0.4210 c3         1 EVT      -0.075400
     11 C17         -6.0680     1.2180     0.3370 c3         1 EVT      -0.074400
     12 C18         -7.1750     0.5940    -0.5050 c3         1 EVT      -0.074400
     13 C19         -8.4730     0.3970     0.2680 c3         1 EVT      -0.074400
     14 C20         -9.5440    -0.3450    -0.5210 c3         1 EVT      -0.074400
     15 C21        -10.8300    -0.5600     0.2670 c3         1 EVT      -0.074400
     16 C22        -11.8840    -1.3500    -0.4980 c3         1 EVT      -0.074400
     17 C23          4.0060     4.4460     0.5790 c          1 EVT       0.927600
     18 O24          3.1870     5.0910    -0.0970 o          1 EVT      -0.846300
     19 N25          2.5700     2.4630     0.0990 ns         1 EVT      -0.506900
     20 C26          1.3990     2.7440     0.6970 c          1 EVT       0.669100
     21 O26          4.9860     4.8930     1.2080 o          1 EVT      -0.846300
     22 O27          1.3240     3.1430     1.8520 o          1 EVT      -0.643100
     23 C29        -13.1620    -1.5770     0.3000 c3         1 EVT      -0.074400
     24 C30        -14.2080    -2.3840    -0.4570 c3         1 EVT      -0.076400
     25 C31        -15.4860    -2.6180     0.3410 c3         1 EVT      -0.075400
     26 C32        -16.5200    -3.4300    -0.4260 c3         1 EVT      -0.088100
     27 C33          8.8310    -4.2180     1.9840 c          1 EVT       0.921600
     28 O34          8.5140    -5.3500     1.5700 o          1 EVT      -0.874300
     29 C36          7.6170    -3.3150    -0.1150 c3         1 EVT      -0.055400
     30 C37          7.2840    -2.0900    -0.9650 c3         1 EVT      -0.038300
     31 C38          6.6500    -2.5360    -2.3080 c          1 EVT       0.930600
     32 O39          7.4530    -3.0070    -3.1400 o          1 EVT      -0.858300
     33 O40          5.4180    -2.4270    -2.4320 o          1 EVT      -0.858300
     34 H93          4.0150     0.2960    -0.3630 hc         1 EVT       0.041700
     35 H92          4.9610     0.4070     1.0980 hc         1 EVT       0.041700
     36 H103         5.9160     2.5970     0.3210 hc         1 EVT       0.058200
     37 H102         4.9620     2.4960    -1.1420 hc         1 EVT       0.058200
     38 H11          3.8680     2.6090     1.6980 h1         1 EVT       0.058700
     39 H122         0.3480     1.6640    -0.8320 hc         1 EVT       0.050200
     40 H123         0.0750     3.3860    -0.8240 hc         1 EVT       0.050200
     41 H133        -0.9860     1.4880     1.3290 hc         1 EVT       0.046700
     42 H132        -1.3160     3.2040     1.2220 hc         1 EVT       0.046700
     43 H143        -2.4110     2.8290    -1.0190 hc         1 EVT       0.032700
     44 H142        -2.0880     1.1160    -0.8690 hc         1 EVT       0.032700
     45 H153        -3.4630     1.0890     1.2600 hc         1 EVT       0.035200
     46 H152        -3.8640     2.7710     0.9840 hc         1 EVT       0.035200
     47 H6           5.8480    -1.5950     0.5000 hn         1 EVT       0.289500
     48 H163        -4.8970     2.1320    -1.2260 hc         1 EVT       0.035700
     49 H162        -4.4900     0.4590    -0.9100 hc         1 EVT       0.035700
     50 H173        -5.8890     0.5840     1.2120 hc         1 EVT       0.034700
     51 H172        -6.4040     2.1840     0.7290 hc         1 EVT       0.034700
     52 H183        -7.3640     1.2120    -1.3890 hc         1 EVT       0.036700
     53 H182        -6.8290    -0.3760    -0.8820 hc         1 EVT       0.036700
     54 H193        -8.2600    -0.1560     1.1900 hc         1 EVT       0.035200
     55 H192        -8.8620     1.3710     0.5850 hc         1 EVT       0.035200
     56 H203        -9.7690     0.2020    -1.4430 hc         1 EVT       0.036700
     57 H202        -9.1480    -1.3170    -0.8380 hc         1 EVT       0.036700
     58 H213       -10.5950    -1.0820     1.2020 hc         1 EVT       0.035700
     59 H212       -11.2440     0.4110     0.5610 hc         1 EVT       0.035700
     60 H223       -12.1250    -0.8280    -1.4300 hc         1 EVT       0.036700
     61 H222       -11.4650    -2.3180    -0.7940 hc         1 EVT       0.036700
     62 H25          2.5420     2.2860    -0.8940 hn         1 EVT       0.293500
     63 H293       -12.9170    -2.0890     1.2370 hc         1 EVT       0.036200
     64 H292       -13.5880    -0.6090     0.5880 hc         1 EVT       0.036200
     65 H303       -14.4560    -1.8720    -1.3940 hc         1 EVT       0.036700
     66 H302       -13.7810    -3.3510    -0.7470 hc         1 EVT       0.036700
     67 H313       -15.2380    -3.1280     1.2770 hc         1 EVT       0.035700
     68 H312       -15.9150    -1.6520     0.6270 hc         1 EVT       0.035700
     69 H321       -16.8010    -2.9300    -1.3550 hc         1 EVT       0.028700
     70 H323       -16.1290    -4.4150    -0.6900 hc         1 EVT       0.028700
     71 H322       -17.4290    -3.5800     0.1570 hc         1 EVT       0.028700
     72 H353         7.8280    -2.3300     1.8020 hc         1 EVT       0.014200
     73 H352         9.3010    -2.4290     0.8850 hc         1 EVT       0.014200
     74 H363         8.1920    -4.0010    -0.7380 hc         1 EVT       0.043200
     75 H362         6.6900    -3.8400     0.1390 hc         1 EVT       0.043200
     76 H37          8.2190    -1.5670    -1.1930 h1         1 EVT       0.049700
     77 OXT          9.4740    -3.9680     3.0260 o          1 EVT      -0.874300
     78 C35          8.4020    -2.9970     1.1490 c3         1 EVT      -0.199400
     79 C12          0.1760     2.5150    -0.1660 c3         1 EVT      -0.167400
@<TRIPOS>BOND
     1     1     2 1   
     2     1     7 2   
     3     1     9 1   
     4     2     3 1   
     5     2    34 1   
     6     2    35 1   
     7     3     4 1   
     8     3    36 1   
     9     3    37 1   
    10     4    17 1   
    11     4    19 1   
    12     4    38 1   
    13     5     6 1   
    14     5    41 1   
    15     5    42 1   
    16     5    79 1   
    17     6     8 1   
    18     6    43 1   
    19     6    44 1   
    20     8    10 1   
    21     8    45 1   
    22     8    46 1   
    23     9    30 1   
    24     9    47 1   
    25    10    11 1   
    26    10    48 1   
    27    10    49 1   
    28    11    12 1   
    29    11    50 1   
    30    11    51 1   
    31    12    13 1   
    32    12    52 1   
    33    12    53 1   
    34    13    14 1   
    35    13    54 1   
    36    13    55 1   
    37    14    15 1   
    38    14    56 1   
    39    14    57 1   
    40    15    16 1   
    41    15    58 1   
    42    15    59 1   
    43    16    23 1   
    44    16    60 1   
    45    16    61 1   
    46    17    18 1   
    47    17    21 1   
    48    19    20 1   
    49    19    62 1   
    50    20    22 2   
    51    20    79 1   
    52    23    24 1   
    53    23    63 1   
    54    23    64 1   
    55    24    25 1   
    56    24    65 1   
    57    24    66 1   
    58    25    26 1   
    59    25    67 1   
    60    25    68 1   
    61    26    69 1   
    62    26    70 1   
    63    26    71 1   
    64    27    28 1   
    65    27    77 1   
    66    27    78 1   
    67    29    30 1   
    68    29    74 1   
    69    29    75 1   
    70    29    78 1   
    71    30    31 1   
    72    30    76 1   
    73    31    32 1   
    74    31    33 1   
    75    39    79 1   
    76    40    79 1   
    77    72    78 1   
    78    73    78 1   
@<TRIPOS>SUBSTRUCTURE
     1 EVT         1 TEMP              0 ****  ****    0 ROOT
