@<TRIPOS>MOLECULE
EVU
   40    42     1     0     0
SMALL
abcg2


@<TRIPOS>ATOM
      1 N1          50.4130   -16.2140   -93.3100 nh         1 EVU      -0.783400
      2 N3          47.7780   -10.3230   -91.7800 n8         1 EVU      -0.999200
      3 C4          52.6090   -15.2630   -93.3380 c6         1 EVU       0.113000
      4 C5          51.7900   -16.4970   -93.6470 c6         1 EVU       0.173800
      5 C6          48.4970   -13.9500   -93.8850 ca         1 EVU      -0.096000
      6 C7          47.7570   -15.0800   -93.5270 cp         1 EVU      -0.041000
      7 C8          46.6540   -14.9030   -92.6960 ca         1 EVU      -0.096000
      8 C10         47.0380   -12.5180   -92.5920 ca         1 EVU      -0.080300
      9 C13         47.1050   -17.1940   -94.6340 ca         1 EVU      -0.086000
     10 C15         48.6580   -18.9490   -95.1100 ca         1 EVU      -0.090000
     11 C17         46.6290   -11.1470   -92.1150 c3         1 EVU       0.197100
     12 C1          49.4030   -16.9590   -93.9420 ca         1 EVU       0.277000
     13 C2          50.2550   -16.0490   -91.8790 c6         1 EVU       0.103800
     14 C3          51.2450   -15.0770   -91.2730 c          1 EVU       0.569000
     15 N2          52.3330   -14.7890   -91.9980 ns         1 EVU      -0.504900
     16 O1          51.0560   -14.6270   -90.1490 o          1 EVU      -0.571000
     17 C9          46.3040   -13.6420   -92.2320 ca         1 EVU      -0.102500
     18 C11         48.1420   -12.6940   -93.4250 ca         1 EVU      -0.102500
     19 C12         48.1010   -16.4280   -94.0320 cp         1 EVU      -0.040000
     20 C14         47.3690   -18.4440   -95.1750 ca         1 EVU      -0.126000
     21 C16         49.6600   -18.2170   -94.4880 ca         1 EVU      -0.158000
     22 H1          47.4640    -9.3850   -91.5660 hn         1 EVU       0.397500
     23 H2          48.2100   -10.6730   -90.9340 hn         1 EVU       0.397500
     24 H4          53.6720   -15.4960   -93.4160 h1         1 EVU       0.045700
     25 H5          52.3870   -14.4820   -94.0700 h1         1 EVU       0.045700
     26 H6          52.1870   -17.3650   -93.0980 h1         1 EVU       0.047200
     27 H7          51.8800   -16.7100   -94.7110 h1         1 EVU       0.047200
     28 H8          49.3580   -14.0570   -94.5320 ha         1 EVU       0.116500
     29 H9          46.0710   -15.7630   -92.3880 ha         1 EVU       0.116500
     30 H10         46.1050   -16.7830   -94.7080 ha         1 EVU       0.118000
     31 H11         48.8890   -19.9200   -95.5290 ha         1 EVU       0.113000
     32 H12         46.0860   -10.6460   -92.9220 h1         1 EVU       0.033200
     33 H13         45.9070   -11.2620   -91.2960 h1         1 EVU       0.033200
     34 H14         49.2580   -15.6810   -91.6400 h1         1 EVU       0.072700
     35 H15         50.3770   -17.0040   -91.3430 h1         1 EVU       0.072700
     36 H16         52.9810   -14.1280   -91.5950 hn         1 EVU       0.316500
     37 H17         45.4500   -13.5370   -91.5720 ha         1 EVU       0.118500
     38 H18         48.7320   -11.8340   -93.7150 ha         1 EVU       0.118500
     39 H19         46.5790   -19.0070   -95.6530 ha         1 EVU       0.116000
     40 H20         50.6520   -18.6420   -94.4180 ha         1 EVU       0.111000
@<TRIPOS>BOND
     1     1     4 1   
     2     1    12 1   
     3     1    13 1   
     4     2    11 1   
     5     2    22 1   
     6     2    23 1   
     7     3     4 1   
     8     3    15 1   
     9     3    24 1   
    10     3    25 1   
    11     4    26 1   
    12     4    27 1   
    13     5     6 ar  
    14     5    18 ar  
    15     5    28 1   
    16     6     7 ar  
    17     6    19 1   
    18     7    17 ar  
    19     7    29 1   
    20     8    11 1   
    21     8    17 ar  
    22     8    18 ar  
    23     9    19 ar  
    24     9    20 ar  
    25     9    30 1   
    26    10    20 ar  
    27    10    21 ar  
    28    10    31 1   
    29    11    32 1   
    30    11    33 1   
    31    12    19 ar  
    32    12    21 ar  
    33    13    14 1   
    34    13    34 1   
    35    13    35 1   
    36    14    15 1   
    37    14    16 2   
    38    15    36 1   
    39    17    37 1   
    40    18    38 1   
    41    20    39 1   
    42    21    40 1   
@<TRIPOS>SUBSTRUCTURE
     1 EVU         1 TEMP              0 ****  ****    0 ROOT
