@<TRIPOS>MOLECULE
EVU
   40    42     1     0     0
SMALL
No Charge or Current Charge


@<TRIPOS>ATOM
      1 N1          50.4480   -16.3410   -93.2820 nh         1 EVU      -0.783400
      2 N3          47.4110   -10.6370   -91.0550 n8         1 EVU      -0.999200
      3 C4          52.6700   -15.1720   -93.4920 c6         1 EVU       0.113000
      4 C5          51.8420   -16.4520   -93.7990 c6         1 EVU       0.173800
      5 C6          48.5460   -13.9690   -93.9400 ca         1 EVU      -0.096000
      6 C7          47.7310   -15.0690   -93.5750 cp         1 EVU      -0.041000
      7 C8          46.5780   -14.8070   -92.7950 ca         1 EVU      -0.096000
      8 C10         47.0850   -12.4190   -92.7490 ca         1 EVU      -0.080300
      9 C13         47.0290   -17.2530   -94.5910 ca         1 EVU      -0.086000
     10 C15         48.5630   -19.0980   -94.9390 ca         1 EVU      -0.090000
     11 C17         46.7350   -11.0020   -92.3140 c3         1 EVU       0.197100
     12 C1          49.3680   -17.0280   -93.8960 ca         1 EVU       0.277000
     13 C2          50.3760   -15.9660   -91.8220 c6         1 EVU       0.103800
     14 C3          51.5330   -15.0930   -91.2350 c          1 EVU       0.569000
     15 N2          52.5420   -14.7140   -92.0950 ns         1 EVU      -0.504900
     16 O1          51.5560   -14.7340   -90.0660 o          1 EVU      -0.571000
     17 C9          46.2600   -13.5010   -92.3850 ca         1 EVU      -0.102500
     18 C11         48.2300   -12.6630   -93.5310 ca         1 EVU      -0.102500
     19 C12         48.0570   -16.4650   -94.0130 cp         1 EVU      -0.040000
     20 C14         47.2780   -18.5550   -95.0500 ca         1 EVU      -0.126000
     21 C16         49.5960   -18.3410   -94.3650 ca         1 EVU      -0.158000
     22 H1          47.0740    -9.7150   -90.7530 hn         1 EVU       0.397500
     23 H2          47.0870   -11.2700   -90.3150 hn         1 EVU       0.397500
     24 H4          53.7310   -15.3550   -93.7140 h1         1 EVU       0.045700
     25 H5          52.3270   -14.3580   -94.1460 h1         1 EVU       0.045700
     26 H6          52.3410   -17.3170   -93.3370 h1         1 EVU       0.047200
     27 H7          51.8390   -16.6160   -94.8870 h1         1 EVU       0.047200
     28 H8          49.4310   -14.1350   -94.5500 ha         1 EVU       0.116500
     29 H9          45.9310   -15.6290   -92.4970 ha         1 EVU       0.116500
     30 H10         46.0290   -16.8390   -94.6970 ha         1 EVU       0.118000
     31 H11         48.7590   -20.1090   -95.2910 ha         1 EVU       0.113000
     32 H12         47.0330   -10.2880   -93.0960 h1         1 EVU       0.033200
     33 H13         45.6490   -10.9150   -92.1700 h1         1 EVU       0.033200
     34 H14         49.4550   -15.4060   -91.6130 h1         1 EVU       0.072700
     35 H15         50.3510   -16.8780   -91.2080 h1         1 EVU       0.072700
     36 H16         53.2730   -14.1350   -91.7020 hn         1 EVU       0.316500
     37 H17         45.3700   -13.3300   -91.7830 ha         1 EVU       0.118500
     38 H18         48.8760   -11.8370   -93.8220 ha         1 EVU       0.118500
     39 H19         46.4750   -19.1390   -95.4950 ha         1 EVU       0.116000
     40 H20         50.5790   -18.7910   -94.2680 ha         1 EVU       0.111000
@<TRIPOS>BOND
     1     1     4 1   
     2     1    12 1   
     3     1    13 1   
     4     2    11 1   
     5     2    22 1   
     6     2    23 1   
     7     3     4 1   
     8     3    15 1   
     9     3    24 1   
    10     3    25 1   
    11     4    26 1   
    12     4    27 1   
    13     5     6 ar  
    14     5    18 ar  
    15     5    28 1   
    16     6     7 ar  
    17     6    19 1   
    18     7    17 ar  
    19     7    29 1   
    20     8    11 1   
    21     8    17 ar  
    22     8    18 ar  
    23     9    19 ar  
    24     9    20 ar  
    25     9    30 1   
    26    10    20 ar  
    27    10    21 ar  
    28    10    31 1   
    29    11    32 1   
    30    11    33 1   
    31    12    19 ar  
    32    12    21 ar  
    33    13    14 1   
    34    13    34 1   
    35    13    35 1   
    36    14    15 1   
    37    14    16 2   
    38    15    36 1   
    39    17    37 1   
    40    18    38 1   
    41    20    39 1   
    42    21    40 1   
@<TRIPOS>SUBSTRUCTURE
     1 EVU         1 TEMP              0 ****  ****    0 ROOT
