@<TRIPOS>MOLECULE
EVV
   83    84     1     0     0
SMALL
No Charge or Current Charge


@<TRIPOS>ATOM
      1 C17          5.7970    -0.8550     0.6990 c3         1 EVV      -0.160700
      2 C21          5.4890    -0.4720     3.2830 c3         1 EVV      -0.088400
      3 C24          4.5010    -0.3360     4.4630 c3         1 EVV      -0.090100
      4 C01         11.0900    -4.2560    -1.0120 c3         1 EVV      -0.088100
      5 C05          9.9560    -3.2430    -1.2630 c3         1 EVV      -0.075400
      6 C08          9.0020    -3.0920    -0.0580 c3         1 EVV      -0.075400
      7 C11          7.8660    -2.0770    -0.3110 c3         1 EVV      -0.077400
      8 C14          6.9090    -1.9290     0.8970 c3         1 EVV      -0.063400
      9 C19          4.8140    -0.7130     1.9020 c3         1 EVV       0.146700
     10 N28          3.7510     0.2850     1.6190 n          1 EVV      -0.295300
     11 O29          2.4170    -0.2350     1.4090 oh         1 EVV      -0.436100
     12 C31          4.0020     1.6770     1.5290 c          1 EVV       0.572900
     13 O33          3.1190     2.5000     1.3060 o          1 EVV      -0.599100
     14 C34          4.9890    -1.1330    -0.5830 c          1 EVV       0.606100
     15 O35          4.3460    -2.1590    -0.7530 o          1 EVV      -0.588100
     16 N36          5.0460    -0.1410    -1.5310 ns         1 EVV      -0.522900
     17 C38          4.2750    -0.1420    -2.7580 c3         1 EVV       0.270400
     18 N41          2.9850     0.4890    -2.5670 ns         1 EVV      -0.498900
     19 C43          2.7170     1.8160    -2.7990 c          1 EVV       0.542600
     20 O44          3.5530     2.5830    -3.2590 o          1 EVV      -0.613100
     21 C45          1.3280     2.2000    -2.4380 cc         1 EVV       0.007500
     22 C46          0.7730     3.4510    -2.5590 cd         1 EVV      -0.092000
     23 C48         -0.5580     3.3600    -2.0920 cd         1 EVV      -0.228000
     24 C50         -0.7410     2.0570    -1.7140 cc         1 EVV       0.276500
     25 O51          0.4010     1.3190    -1.9140 os         1 EVV      -0.235000
     26 C52         -1.9690     1.4810    -1.1450 ca         1 EVV      -0.144500
     27 C53         -3.1910     2.1770    -1.1730 ca         1 EVV      -0.128000
     28 C55         -4.3530     1.6100    -0.6270 ca         1 EVV      -0.062000
     29 C57         -4.3290     0.3250    -0.0330 ca         1 EVV      -0.117600
     30 C58         -5.5990    -0.2590     0.5580 c          1 EVV       0.604700
     31 O59         -5.6070    -1.0480     1.4960 o          1 EVV      -0.627100
     32 N60         -6.7760     0.1960    -0.0070 ns         1 EVV      -0.407900
     33 C62         -8.1440    -0.1450     0.4480 c3         1 EVV      -0.011300
     34 C64         -8.7980     1.0190     1.2470 c3         1 EVV      -0.207400
     35 C67         -8.0300     1.3170     2.5450 c          1 EVV       0.703000
     36 O68         -8.3330     0.6910     3.5490 o          1 EVV      -0.765500
     37 O70         -7.1620     2.1770     2.5230 o          1 EVV      -0.765500
     38 C71         -9.0170    -0.5800    -0.7730 c          1 EVV       0.718000
     39 O72         -9.0280     0.1320    -1.7700 o          1 EVV      -0.752500
     40 O74         -9.5830    -1.6640    -0.7240 o          1 EVV      -0.752500
     41 C75         -3.1020    -0.3840    -0.0010 ca         1 EVV       0.171100
     42 O76         -3.0680    -1.6550     0.5420 os         1 EVV      -0.295100
     43 C77         -1.8680    -2.4420     0.6120 c3         1 EVV       0.168600
     44 C80         -2.2260    -3.7780     1.2830 c3         1 EVV      -0.091100
     45 C84         -1.9390     0.2000    -0.5570 ca         1 EVV      -0.200000
     46 H1           6.3030     0.1110     0.5800 hc         1 EVV       0.046700
     47 H2           6.1160     0.4270     3.2360 hc         1 EVV       0.042700
     48 H3           6.1570    -1.3090     3.5140 hc         1 EVV       0.042700
     49 H4           3.8690     0.5530     4.3540 hc         1 EVV       0.041367
     50 H5           3.8520    -1.2180     4.5290 hc         1 EVV       0.041367
     51 H6           5.0490    -0.2460     5.4090 hc         1 EVV       0.041367
     52 H7          10.6810    -5.2520    -0.8040 hc         1 EVV       0.030033
     53 H8          11.7390    -4.3280    -1.8920 hc         1 EVV       0.030033
     54 H9          11.7030    -3.9470    -0.1570 hc         1 EVV       0.030033
     55 H10         10.3970    -2.2670    -1.5020 hc         1 EVV       0.037200
     56 H11          9.3840    -3.5600    -2.1430 hc         1 EVV       0.037200
     57 H12          8.5640    -4.0700     0.1790 hc         1 EVV       0.038200
     58 H13          9.5780    -2.7780     0.8210 hc         1 EVV       0.038200
     59 H14          8.3040    -1.0980    -0.5440 hc         1 EVV       0.042700
     60 H15          7.3010    -2.3950    -1.1950 hc         1 EVV       0.042700
     61 H16          7.5180    -1.6690     1.7710 hc         1 EVV       0.051200
     62 H17          6.4450    -2.9010     1.1100 hc         1 EVV       0.051200
     63 H18          4.3090    -1.6860     1.9910 h1         1 EVV       0.103700
     64 H19          1.9580    -0.1390     2.2750 ho         1 EVV       0.482000
     65 H20          5.0650     1.9390     1.6850 h5         1 EVV       0.018200
     66 H21          5.6120     0.6710    -1.3220 hn         1 EVV       0.317500
     67 H22          4.8360     0.4010    -3.5290 h2         1 EVV       0.065700
     68 H23          4.1180    -1.1760    -3.0890 h2         1 EVV       0.065700
     69 H24          2.2330    -0.0610    -2.1690 hn         1 EVV       0.344500
     70 H25          1.2710     4.3380    -2.9380 ha         1 EVV       0.147000
     71 H26         -1.2790     4.1670    -2.0370 ha         1 EVV       0.148000
     72 H27         -3.2560     3.1660    -1.6200 ha         1 EVV       0.108000
     73 H28         -5.2680     2.1990    -0.6490 ha         1 EVV       0.163000
     74 H29         -6.6890     0.8000    -0.8140 hn         1 EVV       0.301500
     75 H30         -8.0860    -1.0190     1.1090 h1         1 EVV       0.069700
     76 H31         -8.7860     1.8920     0.5840 hc         1 EVV       0.032700
     77 H32         -9.8070     0.6640     1.4880 hc         1 EVV       0.032700
     78 H35         -1.4700    -2.6350    -0.3920 h1         1 EVV       0.017200
     79 H36         -1.1010    -1.9300     1.2070 h1         1 EVV       0.017200
     80 H37         -2.6170    -3.6090     2.2930 hc         1 EVV       0.046367
     81 H38         -2.9830    -4.3130     0.6980 hc         1 EVV       0.046367
     82 H39         -1.3370    -4.4140     1.3590 hc         1 EVV       0.046367
     83 H40         -0.9950    -0.3360    -0.5410 ha         1 EVV       0.109000
@<TRIPOS>BOND
     1     1     8 1   
     2     1     9 1   
     3     1    14 1   
     4     1    46 1   
     5     2     3 1   
     6     2     9 1   
     7     2    47 1   
     8     2    48 1   
     9     3    49 1   
    10     3    50 1   
    11     3    51 1   
    12     4     5 1   
    13     4    52 1   
    14     4    53 1   
    15     4    54 1   
    16     5     6 1   
    17     5    55 1   
    18     5    56 1   
    19     6     7 1   
    20     6    57 1   
    21     6    58 1   
    22     7     8 1   
    23     7    59 1   
    24     7    60 1   
    25     8    61 1   
    26     8    62 1   
    27     9    10 1   
    28     9    63 1   
    29    10    11 1   
    30    10    12 1   
    31    11    64 1   
    32    12    13 2   
    33    12    65 1   
    34    14    15 2   
    35    14    16 1   
    36    16    17 1   
    37    16    66 1   
    38    17    18 1   
    39    17    67 1   
    40    17    68 1   
    41    18    19 1   
    42    18    69 1   
    43    19    20 2   
    44    19    21 1   
    45    21    22 2   
    46    21    25 1   
    47    22    23 1   
    48    22    70 1   
    49    23    24 2   
    50    23    71 1   
    51    24    25 1   
    52    24    26 1   
    53    26    27 ar  
    54    26    45 ar  
    55    27    28 ar  
    56    27    72 1   
    57    28    29 ar  
    58    28    73 1   
    59    29    30 1   
    60    29    41 ar  
    61    30    31 2   
    62    30    32 1   
    63    32    33 1   
    64    32    74 1   
    65    33    34 1   
    66    33    38 1   
    67    33    75 1   
    68    34    35 1   
    69    34    76 1   
    70    34    77 1   
    71    35    36 1   
    72    35    37 1   
    73    38    39 1   
    74    38    40 1   
    75    41    42 1   
    76    41    45 ar  
    77    42    43 1   
    78    43    44 1   
    79    43    78 1   
    80    43    79 1   
    81    44    80 1   
    82    44    81 1   
    83    44    82 1   
    84    45    83 1   
@<TRIPOS>SUBSTRUCTURE
     1 EVV         1 TEMP              0 ****  ****    0 ROOT
