@<TRIPOS>MOLECULE
EVV
   83    84     1     0     0
SMALL
bcc


@<TRIPOS>ATOM
      1 C17          5.9120    -0.4190     0.6600 c3         1 EVV      -0.160700
      2 C21          6.2720     0.2740     3.1020 c3         1 EVV      -0.088400
      3 C24          5.6770     0.8730     4.3690 c3         1 EVV      -0.090100
      4 C01          8.8630    -5.8370    -1.0910 c3         1 EVV      -0.088100
      5 C05          8.2900    -4.4520    -1.3600 c3         1 EVV      -0.075400
      6 C08          7.6840    -3.8150    -0.1160 c3         1 EVV      -0.075400
      7 C11          7.0950    -2.4330    -0.3760 c3         1 EVV      -0.077400
      8 C14          6.4710    -1.8260     0.8760 c3         1 EVV      -0.063400
      9 C19          5.2830     0.1770     1.9380 c3         1 EVV       0.146700
     10 N28          4.6770     1.4710     1.6610 n          1 EVV      -0.362300
     11 O29          3.3370     1.4270     1.3540 oh         1 EVV      -0.397100
     12 C31          5.2880     2.6480     1.5650 c          1 EVV       0.639900
     13 O33          4.6990     3.6810     1.2670 o          1 EVV      -0.599100
     14 C34          4.8590    -0.4600    -0.4360 c          1 EVV       0.673100
     15 O35          3.9300    -1.2530    -0.4050 o          1 EVV      -0.588100
     16 N36          5.0280     0.4160    -1.4420 ns         1 EVV      -0.589900
     17 C38          4.0660     0.5380    -2.5080 c3         1 EVV       0.270400
     18 N41          2.7990     1.0690    -2.0780 ns         1 EVV      -0.565900
     19 C43          2.6810     2.3600    -1.7060 c          1 EVV       0.609600
     20 O44          3.5500     3.1980    -1.8870 o          1 EVV      -0.613100
     21 C45          1.4160     2.7360    -1.0630 cc         1 EVV       0.117200
     22 C46          1.0140     3.9210    -0.5290 cd         1 EVV      -0.175300
     23 C48         -0.3020     3.7100    -0.0480 cd         1 EVV      -0.311300
     24 C50         -0.6120     2.4080    -0.3240 cc         1 EVV       0.386200
     25 O51          0.4320     1.8200    -0.9350 os         1 EVV      -0.323800
     26 C52         -1.7970     1.6030    -0.0800 ca         1 EVV      -0.144500
     27 C53         -2.9870     2.2250     0.2870 ca         1 EVV      -0.146000
     28 C55         -4.1140     1.4540     0.5200 ca         1 EVV      -0.080000
     29 C57         -4.0800     0.0710     0.4090 ca         1 EVV      -0.117600
     30 C58         -5.3010    -0.7210     0.7650 c          1 EVV       0.671700
     31 O59         -5.2990    -1.5240     1.6890 o          1 EVV      -0.627100
     32 N60         -6.3820    -0.4070     0.0520 ns         1 EVV      -0.474900
     33 C62         -7.6940    -0.9410     0.3370 c3         1 EVV      -0.011300
     34 C64         -8.7320    -0.1040    -0.3990 c3         1 EVV      -0.207400
     35 C67         -8.7490     1.3910    -0.0210 c          1 EVV       0.913600
     36 O68         -8.4210     1.6920     1.1430 o          1 EVV      -0.870800
     37 O70         -9.1290     2.1800    -0.9120 o          1 EVV      -0.870800
     38 C71         -7.8380    -2.4300    -0.0530 c          1 EVV       0.928600
     39 O72         -7.0560    -2.8860    -0.9030 o          1 EVV      -0.857800
     40 O74         -8.7770    -3.0320     0.5090 o          1 EVV      -0.857800
     41 C75         -2.8840    -0.5560     0.0340 ca         1 EVV       0.171100
     42 O76         -2.9230    -1.8890    -0.0850 os         1 EVV      -0.271900
     43 C77         -1.7620    -2.5870    -0.5200 c3         1 EVV       0.145400
     44 C80         -2.1030    -4.0550    -0.6010 c3         1 EVV      -0.091100
     45 C84         -1.7520     0.2130    -0.2140 ca         1 EVV      -0.218000
     46 H1           6.7350     0.2380     0.3560 hc         1 EVV       0.046700
     47 H2           7.1700     0.8200     2.7990 hc         1 EVV       0.042700
     48 H3           6.6060    -0.7390     3.3270 hc         1 EVV       0.042700
     49 H4           5.4210     1.9260     4.2600 hc         1 EVV       0.041367
     50 H5           4.7720     0.3400     4.6650 hc         1 EVV       0.041367
     51 H6           6.3900     0.7950     5.1900 hc         1 EVV       0.041367
     52 H7           8.0960    -6.5110    -0.7060 hc         1 EVV       0.030033
     53 H8           9.2730    -6.2860    -1.9960 hc         1 EVV       0.030033
     54 H9           9.6650    -5.7950    -0.3510 hc         1 EVV       0.030033
     55 H10          9.0740    -3.8000    -1.7570 hc         1 EVV       0.037200
     56 H11          7.5260    -4.5190    -2.1410 hc         1 EVV       0.037200
     57 H12          6.9020    -4.4700     0.2830 hc         1 EVV       0.038200
     58 H13          8.4480    -3.7430     0.6660 hc         1 EVV       0.038200
     59 H14          7.8810    -1.7680    -0.7510 hc         1 EVV       0.042700
     60 H15          6.3530    -2.5130    -1.1760 hc         1 EVV       0.042700
     61 H16          7.2360    -1.7900     1.6540 hc         1 EVV       0.051200
     62 H17          5.6750    -2.4770     1.2500 hc         1 EVV       0.051200
     63 H18          4.4590    -0.4660     2.2600 h1         1 EVV       0.103700
     64 H19          3.1100     2.3570     1.1790 ho         1 EVV       0.443000
     65 H20          6.3590     2.5980     1.7940 h5         1 EVV       0.018200
     66 H21          5.7620     1.1020    -1.3810 hn         1 EVV       0.317500
     67 H22          4.4990     1.1760    -3.2730 h2         1 EVV       0.065700
     68 H23          3.8760    -0.4360    -2.9530 h2         1 EVV       0.065700
     69 H24          2.1140     0.4000    -1.7640 hn         1 EVV       0.344500
     70 H25          1.5890     4.8310    -0.4840 ha         1 EVV       0.165000
     71 H26         -0.9310     4.4300     0.4500 ha         1 EVV       0.166000
     72 H27         -3.0460     3.3010     0.3780 ha         1 EVV       0.126000
     73 H28         -5.0410     1.9360     0.8060 ha         1 EVV       0.181000
     74 H29         -6.2700     0.2070    -0.7380 hn         1 EVV       0.301500
     75 H30         -7.8740    -0.8450     1.4100 h1         1 EVV       0.069700
     76 H31         -8.6000    -0.2140    -1.4810 hc         1 EVV       0.032700
     77 H32         -9.7200    -0.5180    -0.1750 hc         1 EVV       0.032700
     78 H35         -1.4430    -2.2150    -1.4990 h1         1 EVV       0.017200
     79 H36         -0.9380    -2.4230     0.1820 h1         1 EVV       0.017200
     80 H37         -2.4010    -4.4510     0.3690 hc         1 EVV       0.046367
     81 H38         -2.9080    -4.2370    -1.3140 hc         1 EVV       0.046367
     82 H39         -1.2270    -4.6100    -0.9350 hc         1 EVV       0.046367
     83 H40         -0.8260    -0.2620    -0.5050 ha         1 EVV       0.127000
@<TRIPOS>BOND
     1     1     8 1   
     2     1     9 1   
     3     1    14 1   
     4     1    46 1   
     5     2     3 1   
     6     2     9 1   
     7     2    47 1   
     8     2    48 1   
     9     3    49 1   
    10     3    50 1   
    11     3    51 1   
    12     4     5 1   
    13     4    52 1   
    14     4    53 1   
    15     4    54 1   
    16     5     6 1   
    17     5    55 1   
    18     5    56 1   
    19     6     7 1   
    20     6    57 1   
    21     6    58 1   
    22     7     8 1   
    23     7    59 1   
    24     7    60 1   
    25     8    61 1   
    26     8    62 1   
    27     9    10 1   
    28     9    63 1   
    29    10    11 1   
    30    10    12 1   
    31    11    64 1   
    32    12    13 2   
    33    12    65 1   
    34    14    15 2   
    35    14    16 1   
    36    16    17 1   
    37    16    66 1   
    38    17    18 1   
    39    17    67 1   
    40    17    68 1   
    41    18    19 1   
    42    18    69 1   
    43    19    20 2   
    44    19    21 1   
    45    21    22 2   
    46    21    25 1   
    47    22    23 1   
    48    22    70 1   
    49    23    24 2   
    50    23    71 1   
    51    24    25 1   
    52    24    26 1   
    53    26    27 ar  
    54    26    45 ar  
    55    27    28 ar  
    56    27    72 1   
    57    28    29 ar  
    58    28    73 1   
    59    29    30 1   
    60    29    41 ar  
    61    30    31 2   
    62    30    32 1   
    63    32    33 1   
    64    32    74 1   
    65    33    34 1   
    66    33    38 1   
    67    33    75 1   
    68    34    35 1   
    69    34    76 1   
    70    34    77 1   
    71    35    36 1   
    72    35    37 1   
    73    38    39 1   
    74    38    40 1   
    75    41    42 1   
    76    41    45 ar  
    77    42    43 1   
    78    43    44 1   
    79    43    78 1   
    80    43    79 1   
    81    44    80 1   
    82    44    81 1   
    83    44    82 1   
    84    45    83 1   
@<TRIPOS>SUBSTRUCTURE
     1 EVV         1 TEMP              0 ****  ****    0 ROOT
