@<TRIPOS>MOLECULE
EVW
   43    46     1     0     0
SMALL
No Charge or Current Charge


@<TRIPOS>ATOM
      1 CAG         -2.5880     0.5250    -0.8480 ca         1 EVW       0.000000
      2 CAD         -3.8410     0.0900    -0.3930 ca         1 EVW      -0.210000
      3 SAC         -5.3960     0.7260    -0.9060 ss         1 EVW      -0.031200
      4 CAA         -6.0750    -0.4700     0.2190 cc         1 EVW       0.663100
      5 NAB         -7.3930    -0.6180     0.4240 nv         1 EVW      -1.032200
      6 NAF         -5.2710    -1.2590     0.9110 nd         1 EVW      -0.646100
      7 CAE         -3.9740    -0.9190     0.5400 ca         1 EVW       0.170400
      8 CAJ         -2.8290    -1.5380     1.0580 ca         1 EVW      -0.095000
      9 CAI         -1.5530    -1.1250     0.6220 ca         1 EVW      -0.075000
     10 CAH         -1.4170    -0.0860    -0.3400 ca         1 EVW      -0.169600
     11 CAK         -0.0670     0.3880    -0.8340 c          1 EVW       0.610700
     12 OAP          0.0450     1.2880    -1.6550 o          1 EVW      -0.591100
     13 NAL          1.0350    -0.2480    -0.3140 ns         1 EVW      -0.503900
     14 CAM          2.4190     0.0750    -0.6520 c3         1 EVW       0.212300
     15 CAO          2.9220     1.3410     0.0470 ca         1 EVW      -0.091800
     16 CAQ          2.4770     1.7040     1.3380 ca         1 EVW      -0.094250
     17 CAR          2.9620     2.8700     1.9560 ca         1 EVW      -0.110500
     18 CAS          3.8960     3.6830     1.2940 ca         1 EVW      -0.105000
     19 CAU          4.3470     3.3280     0.0120 ca         1 EVW      -0.110500
     20 CAT          3.8620     2.1630    -0.6080 ca         1 EVW      -0.094250
     21 CAN          3.3280    -1.1190    -0.3710 ca         1 EVW      -0.091800
     22 CAV          3.5020    -1.6010     0.9440 ca         1 EVW      -0.094250
     23 CAZ          4.3400    -2.7010     1.1930 ca         1 EVW      -0.110500
     24 CAY          5.0110    -3.3300     0.1320 ca         1 EVW      -0.105000
     25 CAX          4.8430    -2.8570    -1.1800 ca         1 EVW      -0.110500
     26 CAW          4.0060    -1.7570    -1.4310 ca         1 EVW      -0.094250
     27 H1          -2.5270     1.3250    -1.5850 ha         1 EVW       0.144000
     28 H2          -7.9840     0.1720     0.1880 hn         1 EVW       0.502000
     29 H3          -7.6450    -1.1320     1.2600 hn         1 EVW       0.502000
     30 H4          -2.9260    -2.3320     1.7930 ha         1 EVW       0.132000
     31 H5          -0.6850    -1.6240     1.0430 ha         1 EVW       0.114000
     32 H6           0.8700    -0.9990     0.3400 hn         1 EVW       0.320500
     33 H7           2.4450     0.2650    -1.7340 h1         1 EVW       0.067700
     34 H8           1.7560     1.0860     1.8680 ha         1 EVW       0.113500
     35 H9           2.6130     3.1430     2.9500 ha         1 EVW       0.112500
     36 H10          4.2710     4.5850     1.7730 ha         1 EVW       0.112000
     37 H11          5.0720     3.9560    -0.5020 ha         1 EVW       0.112500
     38 H12          4.2210     1.8970    -1.6000 ha         1 EVW       0.113500
     39 H13          2.9910    -1.1220     1.7760 ha         1 EVW       0.113500
     40 H14          4.4700    -3.0660     2.2100 ha         1 EVW       0.112500
     41 H15          5.6600    -4.1820     0.3250 ha         1 EVW       0.112000
     42 H16          5.3620    -3.3440    -2.0030 ha         1 EVW       0.112500
     43 H17          3.8840    -1.4010    -2.4520 ha         1 EVW       0.113500
@<TRIPOS>BOND
     1     1     2 ar  
     2     1    10 ar  
     3     1    27 1   
     4     2     3 1   
     5     2     7 ar  
     6     3     4 1   
     7     4     5 1   
     8     4     6 2   
     9     5    28 1   
    10     5    29 1   
    11     6     7 1   
    12     7     8 ar  
    13     8     9 ar  
    14     8    30 1   
    15     9    10 ar  
    16     9    31 1   
    17    10    11 1   
    18    11    12 2   
    19    11    13 1   
    20    13    14 1   
    21    13    32 1   
    22    14    15 1   
    23    14    21 1   
    24    14    33 1   
    25    15    16 ar  
    26    15    20 ar  
    27    16    17 ar  
    28    16    34 1   
    29    17    18 ar  
    30    17    35 1   
    31    18    19 ar  
    32    18    36 1   
    33    19    20 ar  
    34    19    37 1   
    35    20    38 1   
    36    21    22 ar  
    37    21    26 ar  
    38    22    23 ar  
    39    22    39 1   
    40    23    24 ar  
    41    23    40 1   
    42    24    25 ar  
    43    24    41 1   
    44    25    26 ar  
    45    25    42 1   
    46    26    43 1   
@<TRIPOS>SUBSTRUCTURE
     1 EVW         1 TEMP              0 ****  ****    0 ROOT
