@<TRIPOS>MOLECULE
EVW
   43    46     1     0     0
SMALL
bcc


@<TRIPOS>ATOM
      1 CAG         -2.5220     0.4680    -0.8120 ca         1 EVW      -0.018000
      2 CAD         -3.7630     0.0330    -0.3960 ca         1 EVW      -0.083100
      3 SAC         -5.3240     0.4070    -1.0690 ss         1 EVW      -0.158100
      4 CAA         -6.0500    -0.6070     0.1780 cc         1 EVW       0.663100
      5 NAB         -7.3720    -0.7730     0.2020 nv         1 EVW      -0.921800
      6 NAF         -5.2210    -1.1640     1.0070 nd         1 EVW      -0.646100
      7 CAE         -3.9320    -0.8250     0.7080 ca         1 EVW       0.170400
      8 CAJ         -2.7980    -1.2470     1.4000 ca         1 EVW      -0.113000
      9 CAI         -1.5500    -0.8260     0.9810 ca         1 EVW      -0.093000
     10 CAH         -1.3960     0.0210    -0.1240 ca         1 EVW      -0.169600
     11 CAK         -0.0640     0.5010    -0.5860 c          1 EVW       0.677700
     12 OAP          0.0630     1.5350    -1.2250 o          1 EVW      -0.591100
     13 NAL          0.9940    -0.2700    -0.2550 ns         1 EVW      -0.570900
     14 CAM          2.3370     0.0700    -0.6770 c3         1 EVW       0.212300
     15 CAO          2.8730     1.3100     0.0150 ca         1 EVW      -0.091800
     16 CAQ          2.4510     1.6950     1.2820 ca         1 EVW      -0.112250
     17 CAR          3.0110     2.8040     1.9040 ca         1 EVW      -0.128500
     18 CAS          3.9990     3.5410     1.2660 ca         1 EVW      -0.123000
     19 CAU          4.4220     3.1630    -0.0020 ca         1 EVW      -0.128500
     20 CAT          3.8610     2.0550    -0.6210 ca         1 EVW      -0.112250
     21 CAN          3.2560    -1.1060    -0.4240 ca         1 EVW      -0.091800
     22 CAV          3.4000    -1.6390     0.8560 ca         1 EVW      -0.112250
     23 CAZ          4.2530    -2.7090     1.0800 ca         1 EVW      -0.128500
     24 CAY          4.9820    -3.2530     0.0300 ca         1 EVW      -0.123000
     25 CAX          4.8480    -2.7240    -1.2450 ca         1 EVW      -0.128500
     26 CAW          3.9850    -1.6590    -1.4700 ca         1 EVW      -0.112250
     27 H1          -2.4180     1.1340    -1.6580 ha         1 EVW       0.162000
     28 H2          -7.9860    -0.2290    -0.3780 hn         1 EVW       0.446800
     29 H3          -7.7860    -1.2630     0.9780 hn         1 EVW       0.446800
     30 H4          -2.9010    -1.8930     2.2620 ha         1 EVW       0.150000
     31 H5          -0.6870    -1.1470     1.5500 ha         1 EVW       0.132000
     32 H6           0.8300    -1.2130     0.0590 hn         1 EVW       0.320500
     33 H7           2.3360     0.2690    -1.7540 h1         1 EVW       0.067700
     34 H8           1.6750     1.1340     1.7900 ha         1 EVW       0.131500
     35 H9           2.6710     3.0920     2.8910 ha         1 EVW       0.130500
     36 H10          4.4330     4.4050     1.7510 ha         1 EVW       0.130000
     37 H11          5.1860     3.7340    -0.5140 ha         1 EVW       0.130500
     38 H12          4.1940     1.7700    -1.6130 ha         1 EVW       0.131500
     39 H13          2.8530    -1.2160     1.6910 ha         1 EVW       0.131500
     40 H14          4.3540    -3.1150     2.0790 ha         1 EVW       0.130500
     41 H15          5.6510    -4.0860     0.2050 ha         1 EVW       0.130000
     42 H16          5.4140    -3.1400    -2.0690 ha         1 EVW       0.130500
     43 H17          3.8790    -1.2560    -2.4700 ha         1 EVW       0.131500
@<TRIPOS>BOND
     1     1     2 ar  
     2     1    10 ar  
     3     1    27 1   
     4     2     3 1   
     5     2     7 ar  
     6     3     4 1   
     7     4     5 1   
     8     4     6 2   
     9     5    28 1   
    10     5    29 1   
    11     6     7 1   
    12     7     8 ar  
    13     8     9 ar  
    14     8    30 1   
    15     9    10 ar  
    16     9    31 1   
    17    10    11 1   
    18    11    12 2   
    19    11    13 1   
    20    13    14 1   
    21    13    32 1   
    22    14    15 1   
    23    14    21 1   
    24    14    33 1   
    25    15    16 ar  
    26    15    20 ar  
    27    16    17 ar  
    28    16    34 1   
    29    17    18 ar  
    30    17    35 1   
    31    18    19 ar  
    32    18    36 1   
    33    19    20 ar  
    34    19    37 1   
    35    20    38 1   
    36    21    22 ar  
    37    21    26 ar  
    38    22    23 ar  
    39    22    39 1   
    40    23    24 ar  
    41    23    40 1   
    42    24    25 ar  
    43    24    41 1   
    44    25    26 ar  
    45    25    42 1   
    46    26    43 1   
@<TRIPOS>SUBSTRUCTURE
     1 EVW         1 TEMP              0 ****  ****    0 ROOT
