@<TRIPOS>MOLECULE
EVY
   61    61     1     0     0
SMALL
abcg2


@<TRIPOS>ATOM
      1 C19          8.1420    -2.9360     0.6890 c3         1 EVY      -0.088100
      2 C18          6.7420    -3.3250     0.2340 c3         1 EVY      -0.074400
      3 C17          5.7320    -2.1960     0.3940 c3         1 EVY      -0.076400
      4 C16          4.3260    -2.5670    -0.0590 c3         1 EVY      -0.073400
      5 C15          3.3230    -1.4350     0.1200 c3         1 EVY      -0.076400
      6 C14          1.9100    -1.7940    -0.3230 c3         1 EVY      -0.070400
      7 C13          0.9190    -0.6570    -0.1030 c3         1 EVY      -0.082400
      8 C11         -0.4990    -1.0080    -0.5410 c3         1 EVY      -0.068400
      9 C10         -1.5350     0.0660    -0.1900 c3         1 EVY      -0.131700
     10 C22         -2.9560    -0.3030    -0.6270 c3         1 EVY      -0.067400
     11 C23         -3.5080    -1.5510     0.0530 c3         1 EVY      -0.075400
     12 C24         -4.9840    -1.7720    -0.2530 c3         1 EVY      -0.076400
     13 C25         -5.5420    -3.0490     0.3640 c3         1 EVY      -0.075400
     14 C26         -7.0290    -3.2480     0.0930 c3         1 EVY      -0.075400
     15 C27         -7.5740    -4.5370     0.6920 c3         1 EVY      -0.088100
     16 C08         -1.1320     1.3780    -0.8360 c          1 EVY       0.605100
     17 O09         -1.1410     1.5380    -2.0460 o          1 EVY      -0.579100
     18 N07         -0.7670     2.3540     0.0230 ns         1 EVY      -0.510900
     19 C01         -0.3050     3.6540    -0.4050 c5         1 EVY       0.008700
     20 C05         -0.5110     4.7310     0.6480 c5         1 EVY      -0.134400
     21 C04          0.7850     4.6730     1.4480 c5         1 EVY       0.154600
     22 OAP          1.7770     4.2160     0.5130 os         1 EVY      -0.429100
     23 C02          1.2180     3.6230    -0.5400 c          1 EVY       0.629100
     24 O06          1.8740     3.1240    -1.4110 o          1 EVY      -0.461000
     25 H1           8.1490    -2.6510     1.7420 hc         1 EVY       0.031033
     26 H2           8.8480    -3.7570     0.5630 hc         1 EVY       0.031033
     27 H3           8.5180    -2.0860     0.1160 hc         1 EVY       0.031033
     28 H4           6.7710    -3.6380    -0.8150 hc         1 EVY       0.035700
     29 H5           6.4010    -4.1980     0.7990 hc         1 EVY       0.035700
     30 H6           5.7020    -1.8850     1.4450 hc         1 EVY       0.037700
     31 H7           6.0750    -1.3200    -0.1690 hc         1 EVY       0.037700
     32 H8           4.3510    -2.8690    -1.1130 hc         1 EVY       0.036200
     33 H9           3.9850    -3.4470     0.4980 hc         1 EVY       0.036200
     34 H10          3.3040    -1.1350     1.1740 hc         1 EVY       0.040200
     35 H11          3.6650    -0.5550    -0.4360 hc         1 EVY       0.040200
     36 H12          1.9180    -2.0720    -1.3820 hc         1 EVY       0.038200
     37 H13          1.5710    -2.6820     0.2220 hc         1 EVY       0.038200
     38 H14          0.9160    -0.3870     0.9590 hc         1 EVY       0.042200
     39 H15          1.2730     0.2290    -0.6400 hc         1 EVY       0.042200
     40 H16         -0.5230    -1.1920    -1.6190 hc         1 EVY       0.053200
     41 H17         -0.7970    -1.9440    -0.0630 hc         1 EVY       0.053200
     42 H18         -1.5380     0.1880     0.9000 hc         1 EVY       0.044700
     43 H19         -3.6210     0.5390    -0.4060 hc         1 EVY       0.052200
     44 H20         -2.9810    -0.4360    -1.7120 hc         1 EVY       0.052200
     45 H21         -2.9420    -2.4340    -0.2580 hc         1 EVY       0.038700
     46 H22         -3.3720    -1.4680     1.1380 hc         1 EVY       0.038700
     47 H23         -5.5590    -0.9120     0.1060 hc         1 EVY       0.039200
     48 H24         -5.1300    -1.8020    -1.3390 hc         1 EVY       0.039200
     49 H25         -4.9860    -3.9110    -0.0210 hc         1 EVY       0.037200
     50 H26         -5.3700    -3.0360     1.4460 hc         1 EVY       0.037200
     51 H27         -7.5850    -2.3940     0.4920 hc         1 EVY       0.036700
     52 H28         -7.2040    -3.2450    -0.9870 hc         1 EVY       0.036700
     53 H29         -7.0670    -5.4100     0.2760 hc         1 EVY       0.031700
     54 H30         -7.4320    -4.5610     1.7740 hc         1 EVY       0.031700
     55 H31         -8.6410    -4.6500     0.4980 hc         1 EVY       0.031700
     56 H32         -0.7840     2.1570     1.0110 hn         1 EVY       0.314500
     57 H33         -0.7630     3.8970    -1.3630 h1         1 EVY       0.117700
     58 H34         -0.6090     5.7000     0.1590 hc         1 EVY       0.075200
     59 H35         -1.3950     4.5740     1.2650 hc         1 EVY       0.075200
     60 H36          1.1010     5.6390     1.8330 h1         1 EVY       0.062700
     61 H37          0.7380     3.9640     2.2780 h1         1 EVY       0.062700
@<TRIPOS>BOND
     1     1     2 1   
     2     1    25 1   
     3     1    26 1   
     4     1    27 1   
     5     2     3 1   
     6     2    28 1   
     7     2    29 1   
     8     3     4 1   
     9     3    30 1   
    10     3    31 1   
    11     4     5 1   
    12     4    32 1   
    13     4    33 1   
    14     5     6 1   
    15     5    34 1   
    16     5    35 1   
    17     6     7 1   
    18     6    36 1   
    19     6    37 1   
    20     7     8 1   
    21     7    38 1   
    22     7    39 1   
    23     8     9 1   
    24     8    40 1   
    25     8    41 1   
    26     9    10 1   
    27     9    16 1   
    28     9    42 1   
    29    10    11 1   
    30    10    43 1   
    31    10    44 1   
    32    11    12 1   
    33    11    45 1   
    34    11    46 1   
    35    12    13 1   
    36    12    47 1   
    37    12    48 1   
    38    13    14 1   
    39    13    49 1   
    40    13    50 1   
    41    14    15 1   
    42    14    51 1   
    43    14    52 1   
    44    15    53 1   
    45    15    54 1   
    46    15    55 1   
    47    16    17 2   
    48    16    18 1   
    49    18    19 1   
    50    18    56 1   
    51    19    20 1   
    52    19    23 1   
    53    19    57 1   
    54    20    21 1   
    55    20    58 1   
    56    20    59 1   
    57    21    22 1   
    58    21    60 1   
    59    21    61 1   
    60    22    23 1   
    61    23    24 2   
@<TRIPOS>SUBSTRUCTURE
     1 EVY         1 TEMP              0 ****  ****    0 ROOT
