@<TRIPOS>MOLECULE
EVY
   61    61     1     0     0
SMALL
No Charge or Current Charge


@<TRIPOS>ATOM
      1 C19          8.4550    -3.5330     0.2570 c3         1 EVY      -0.088100
      2 C18          7.0020    -3.7870    -0.1890 c3         1 EVY      -0.074400
      3 C17          6.0510    -2.6210     0.1580 c3         1 EVY      -0.076400
      4 C16          4.5940    -2.8760    -0.2890 c3         1 EVY      -0.073400
      5 C15          3.6430    -1.7110     0.0590 c3         1 EVY      -0.076400
      6 C14          2.1870    -1.9650    -0.3880 c3         1 EVY      -0.070400
      7 C13          1.2360    -0.7990    -0.0400 c3         1 EVY      -0.082400
      8 C11         -0.2220    -1.0550    -0.4910 c3         1 EVY      -0.068400
      9 C10         -1.2120     0.0790    -0.0970 c3         1 EVY      -0.131700
     10 C22         -2.6810    -0.2090    -0.5190 c3         1 EVY      -0.067400
     11 C23         -3.3450    -1.3980     0.2160 c3         1 EVY      -0.075400
     12 C24         -4.8330    -1.5780    -0.1570 c3         1 EVY      -0.076400
     13 C25         -5.4990    -2.7660     0.5710 c3         1 EVY      -0.075400
     14 C26         -6.9870    -2.9460     0.2000 c3         1 EVY      -0.075400
     15 C27         -7.6510    -4.1310     0.9260 c3         1 EVY      -0.088100
     16 C08         -0.7590     1.4430    -0.6630 c          1 EVY       0.605100
     17 O09         -0.6840     1.6670    -1.8640 o          1 EVY      -0.579100
     18 N07         -0.4440     2.3900     0.2960 ns         1 EVY      -0.510900
     19 C01         -0.0050     3.7380    -0.1530 c5         1 EVY       0.008700
     20 C05         -1.3070     4.5640    -0.3230 c5         1 EVY      -0.134400
     21 C04         -1.5090     5.0640     1.1310 c5         1 EVY       0.154600
     22 OAP         -0.1740     5.2710     1.6510 os         1 EVY      -0.429100
     23 C02          0.7110     4.4320     1.0290 c          1 EVY       0.629100
     24 O06          1.8780     4.3080     1.3720 o          1 EVY      -0.461000
     25 H1           8.5090    -3.3920     1.3430 hc         1 EVY       0.031033
     26 H2           9.0920    -4.3850    -0.0110 hc         1 EVY       0.031033
     27 H3           8.8600    -2.6370    -0.2290 hc         1 EVY       0.031033
     28 H4           6.9870    -3.9580    -1.2730 hc         1 EVY       0.035700
     29 H5           6.6400    -4.7070     0.2860 hc         1 EVY       0.035700
     30 H6           6.0700    -2.4520     1.2420 hc         1 EVY       0.037700
     31 H7           6.4180    -1.7030    -0.3160 hc         1 EVY       0.037700
     32 H8           4.5750    -3.0460    -1.3730 hc         1 EVY       0.036200
     33 H9           4.2270    -3.7950     0.1860 hc         1 EVY       0.036200
     34 H10          3.6620    -1.5410     1.1430 hc         1 EVY       0.040200
     35 H11          4.0100    -0.7920    -0.4160 hc         1 EVY       0.040200
     36 H12          2.1670    -2.1350    -1.4720 hc         1 EVY       0.038200
     37 H13          1.8200    -2.8840     0.0870 hc         1 EVY       0.038200
     38 H14          1.2540    -0.6330     1.0440 hc         1 EVY       0.042200
     39 H15          1.6140     0.1160    -0.5120 hc         1 EVY       0.042200
     40 H16         -0.2440    -1.1950    -1.5790 hc         1 EVY       0.053200
     41 H17         -0.5550    -2.0000    -0.0460 hc         1 EVY       0.053200
     42 H18         -1.1990     0.1540     0.9970 hc         1 EVY       0.044700
     43 H19         -3.2790     0.6910    -0.3250 hc         1 EVY       0.052200
     44 H20         -2.7230    -0.3810    -1.6020 hc         1 EVY       0.052200
     45 H21         -2.8110    -2.3250    -0.0220 hc         1 EVY       0.038700
     46 H22         -3.2620    -1.2460     1.2990 hc         1 EVY       0.038700
     47 H23         -5.3800    -0.6570     0.0840 hc         1 EVY       0.039200
     48 H24         -4.9180    -1.7260    -1.2410 hc         1 EVY       0.039200
     49 H25         -4.9540    -3.6870     0.3310 hc         1 EVY       0.037200
     50 H26         -5.4140    -2.6170     1.6550 hc         1 EVY       0.037200
     51 H27         -7.5360    -2.0270     0.4410 hc         1 EVY       0.036700
     52 H28         -7.0760    -3.0970    -0.8840 hc         1 EVY       0.036700
     53 H29         -7.1460    -5.0720     0.6770 hc         1 EVY       0.031700
     54 H30         -7.6100    -3.9930     2.0130 hc         1 EVY       0.031700
     55 H31         -8.7040    -4.2190     0.6310 hc         1 EVY       0.031700
     56 H32         -0.5220     2.1080     1.2670 hn         1 EVY       0.314500
     57 H33          0.6430     3.7390    -1.0400 h1         1 EVY       0.117700
     58 H34         -1.1490     5.4120    -1.0000 hc         1 EVY       0.075200
     59 H35         -2.1600     3.9930    -0.7080 hc         1 EVY       0.075200
     60 H36         -2.0890     5.9950     1.1930 h1         1 EVY       0.062700
     61 H37         -2.0080     4.3020     1.7450 h1         1 EVY       0.062700
@<TRIPOS>BOND
     1     1     2 1   
     2     1    25 1   
     3     1    26 1   
     4     1    27 1   
     5     2     3 1   
     6     2    28 1   
     7     2    29 1   
     8     3     4 1   
     9     3    30 1   
    10     3    31 1   
    11     4     5 1   
    12     4    32 1   
    13     4    33 1   
    14     5     6 1   
    15     5    34 1   
    16     5    35 1   
    17     6     7 1   
    18     6    36 1   
    19     6    37 1   
    20     7     8 1   
    21     7    38 1   
    22     7    39 1   
    23     8     9 1   
    24     8    40 1   
    25     8    41 1   
    26     9    10 1   
    27     9    16 1   
    28     9    42 1   
    29    10    11 1   
    30    10    43 1   
    31    10    44 1   
    32    11    12 1   
    33    11    45 1   
    34    11    46 1   
    35    12    13 1   
    36    12    47 1   
    37    12    48 1   
    38    13    14 1   
    39    13    49 1   
    40    13    50 1   
    41    14    15 1   
    42    14    51 1   
    43    14    52 1   
    44    15    53 1   
    45    15    54 1   
    46    15    55 1   
    47    16    17 2   
    48    16    18 1   
    49    18    19 1   
    50    18    56 1   
    51    19    20 1   
    52    19    23 1   
    53    19    57 1   
    54    20    21 1   
    55    20    58 1   
    56    20    59 1   
    57    21    22 1   
    58    21    60 1   
    59    21    61 1   
    60    22    23 1   
    61    23    24 2   
@<TRIPOS>SUBSTRUCTURE
     1 EVY         1 TEMP              0 ****  ****    0 ROOT
