@<TRIPOS>MOLECULE
EVZ
   53    56     1     0     0
SMALL
abcg2


@<TRIPOS>ATOM
      1 OAD        -66.9200   -18.0860    19.6080 o          1 EVZ      -0.480000
      2 CAC        -65.7410   -17.8840    19.8060 c          1 EVZ       0.583100
      3 CAO        -58.5870   -16.2350    21.0020 ca         1 EVZ      -0.103000
      4 CAK        -60.4920   -19.4640    20.4560 c          1 EVZ       0.607700
      5 CAN        -59.4970   -17.1530    20.4970 ca         1 EVZ      -0.074500
      6 CAU        -60.2980   -15.1990    24.0370 ca         1 EVZ      -0.008000
      7 CBA        -61.7960   -13.8480    22.6510 ca         1 EVZ       0.162400
      8 CAT        -59.2340   -14.3900    23.6380 ca         1 EVZ      -0.122000
      9 CBC        -59.4560   -13.3150    22.7650 ca         1 EVZ      -0.063000
     10 CAR        -57.7690   -16.5610    22.0840 ca         1 EVZ      -0.073300
     11 CAS        -56.8700   -15.5260    22.6790 c3         1 EVZ       0.118900
     12 CAQ        -57.8640   -17.8420    22.6330 ca         1 EVZ      -0.103000
     13 CAM        -59.5880   -18.4290    21.0490 ca         1 EVZ      -0.136600
     14 CAP        -58.7500   -18.7720    22.1120 ca         1 EVZ      -0.074500
     15 CBB        -60.7200   -13.0470    22.2640 ca         1 EVZ      -0.093000
     16 CAA        -66.0030   -15.6220    19.1500 c3         1 EVZ       0.145900
     17 OAB        -65.1600   -16.6940    19.6130 os         1 EVZ      -0.451100
     18 CAE        -64.7560   -18.9330    20.2660 c6         1 EVZ      -0.121700
     19 CAH        -63.8380   -18.4490    21.4120 c6         1 EVZ      -0.080900
     20 CAI        -62.4660   -18.0110    20.9160 c6         1 EVZ       0.106000
     21 CAF        -63.9080   -19.4130    19.0650 c6         1 EVZ      -0.080900
     22 CAG        -62.6350   -20.0970    19.5360 c6         1 EVZ       0.106000
     23 NAJ        -61.7900   -19.1470    20.2710 n          1 EVZ      -0.414800
     24 OAL        -60.0310   -20.5610    20.1110 o          1 EVZ      -0.604100
     25 SBD        -57.5960   -14.7740    24.2100 ss         1 EVZ      -0.231000
     26 CAV        -61.5620   -14.9110    23.5520 ca         1 EVZ      -0.200000
     27 SAW        -63.0700   -15.7290    23.8840 ss         1 EVZ      -0.051200
     28 CAX        -63.8750   -14.5970    22.7800 cc         1 EVZ       0.652100
     29 NAY        -65.2080   -14.6740    22.5950 nv         1 EVZ      -1.017200
     30 NAZ        -63.1050   -13.7020    22.2320 nd         1 EVZ      -0.636100
     31 H1         -58.5200   -15.2490    20.5620 ha         1 EVZ       0.119500
     32 H2         -60.1310   -16.8780    19.6640 ha         1 EVZ       0.125000
     33 H4         -58.6190   -12.6970    22.4670 ha         1 EVZ       0.126000
     34 H5         -55.9250   -15.9490    23.0210 h1         1 EVZ       0.077200
     35 H6         -56.6640   -14.7280    21.9690 h1         1 EVZ       0.077200
     36 H7         -57.2410   -18.1060    23.4790 ha         1 EVZ       0.119500
     37 H8         -58.8030   -19.7680    22.5320 ha         1 EVZ       0.125000
     38 H9         -60.8820   -12.2240    21.5790 ha         1 EVZ       0.134000
     39 H10        -65.3520   -14.7570    19.0650 h1         1 EVZ       0.051367
     40 H11        -66.4340   -15.8730    18.1810 h1         1 EVZ       0.051367
     41 H12        -66.7990   -15.4320    19.8690 h1         1 EVZ       0.051367
     42 H13        -65.3590   -19.7680    20.6220 hc         1 EVZ       0.083700
     43 H14        -64.2990   -17.6260    21.9550 hc         1 EVZ       0.058450
     44 H15        -63.7080   -19.2660    22.1230 hc         1 EVZ       0.058450
     45 H16        -61.8630   -17.6740    21.7530 h1         1 EVZ       0.060200
     46 H17        -62.5630   -17.1760    20.2200 h1         1 EVZ       0.060200
     47 H18        -63.6410   -18.5640    18.4320 hc         1 EVZ       0.058450
     48 H19        -64.4850   -20.1060    18.4530 hc         1 EVZ       0.058450
     49 H20        -62.8720   -20.9580    20.1700 h1         1 EVZ       0.060200
     50 H21        -62.0650   -20.4700    18.6870 h1         1 EVZ       0.060200
     51 H22        -65.6030   -14.1280    21.8450 hn         1 EVZ       0.493000
     52 H23        -65.7040   -15.5120    22.8520 hn         1 EVZ       0.493000
     53 H3         -60.1270   -16.0370    24.6980 ha         1 EVZ       0.136000
@<TRIPOS>BOND
     1     1     2 2   
     2     2    17 1   
     3     2    18 1   
     4     3     5 ar  
     5     3    10 ar  
     6     3    31 1   
     7     4    13 1   
     8     4    23 1   
     9     4    24 2   
    10     5    13 ar  
    11     5    32 1   
    12     6     8 ar  
    13     6    26 ar  
    14     6    53 1   
    15     7    15 ar  
    16     7    26 ar  
    17     7    30 1   
    18     8     9 ar  
    19     8    25 1   
    20     9    15 ar  
    21     9    33 1   
    22    10    11 1   
    23    10    12 ar  
    24    11    25 1   
    25    11    34 1   
    26    11    35 1   
    27    12    14 ar  
    28    12    36 1   
    29    13    14 ar  
    30    14    37 1   
    31    15    38 1   
    32    16    17 1   
    33    16    39 1   
    34    16    40 1   
    35    16    41 1   
    36    18    19 1   
    37    18    21 1   
    38    18    42 1   
    39    19    20 1   
    40    19    43 1   
    41    19    44 1   
    42    20    23 1   
    43    20    45 1   
    44    20    46 1   
    45    21    22 1   
    46    21    47 1   
    47    21    48 1   
    48    22    23 1   
    49    22    49 1   
    50    22    50 1   
    51    26    27 1   
    52    27    28 1   
    53    28    29 1   
    54    28    30 2   
    55    29    51 1   
    56    29    52 1   
@<TRIPOS>SUBSTRUCTURE
     1 EVZ         1 TEMP              0 ****  ****    0 ROOT
