@<TRIPOS>MOLECULE
EVZ
   53    56     1     0     0
SMALL
No Charge or Current Charge


@<TRIPOS>ATOM
      1 OAD        -66.9260   -17.7230    19.6230 o          1 EVZ      -0.480000
      2 CAC        -65.7030   -17.7170    19.6120 c          1 EVZ       0.583100
      3 CAO        -58.6780   -16.2030    20.9500 ca         1 EVZ      -0.103000
      4 CAK        -60.5020   -19.5730    20.6590 c          1 EVZ       0.607700
      5 CAN        -59.5670   -17.1990    20.5140 ca         1 EVZ      -0.074500
      6 CAU        -60.2580   -15.2210    24.1430 ca         1 EVZ      -0.008000
      7 CBA        -61.9080   -13.9310    22.8980 ca         1 EVZ       0.162400
      8 CAT        -59.2390   -14.3850    23.6480 ca         1 EVZ      -0.122000
      9 CBC        -59.5580   -13.3240    22.7740 ca         1 EVZ      -0.063000
     10 CAR        -57.7410   -16.4790    21.9630 ca         1 EVZ      -0.073300
     11 CAS        -56.8430   -15.3710    22.4980 c3         1 EVZ       0.118900
     12 CAQ        -57.6790   -17.7730    22.5110 ca         1 EVZ      -0.103000
     13 CAM        -59.5390   -18.4890    21.0910 ca         1 EVZ      -0.136600
     14 CAP        -58.5630   -18.7730    22.0700 ca         1 EVZ      -0.074500
     15 CBB        -60.8980   -13.0950    22.3990 ca         1 EVZ      -0.093000
     16 CAA        -65.6360   -15.5220    18.6110 c3         1 EVZ       0.145900
     17 OAB        -64.9500   -16.6660    19.1510 os         1 EVZ      -0.451100
     18 CAE        -64.8700   -18.8800    20.1940 c6         1 EVZ      -0.121700
     19 CAH        -63.9370   -18.3850    21.3470 c6         1 EVZ      -0.080900
     20 CAI        -62.5050   -18.0300    20.8770 c6         1 EVZ       0.106000
     21 CAF        -64.0080   -19.5550    19.0770 c6         1 EVZ      -0.080900
     22 CAG        -62.7060   -20.1980    19.6150 c6         1 EVZ       0.106000
     23 NAJ        -61.8080   -19.2030    20.2640 n          1 EVZ      -0.414800
     24 OAL        -60.1340   -20.7390    20.5800 o          1 EVZ      -0.604100
     25 SBD        -57.5360   -14.7120    24.0810 ss         1 EVZ      -0.231000
     26 CAV        -61.5820   -14.9700    23.7500 ca         1 EVZ      -0.200000
     27 SAW        -62.9930   -15.8890    24.2470 ss         1 EVZ      -0.051200
     28 CAX        -63.8970   -14.7340    23.2450 cc         1 EVZ       0.652100
     29 NAY        -65.2320   -14.7710    23.1180 nv         1 EVZ      -1.017200
     30 NAZ        -63.2570   -13.7800    22.5910 nd         1 EVZ      -0.636100
     31 H1         -58.7330   -15.2090    20.5130 ha         1 EVZ       0.119500
     32 H2         -60.2710   -16.9620    19.7210 ha         1 EVZ       0.125000
     33 H4         -58.7710   -12.6820    22.3840 ha         1 EVZ       0.126000
     34 H5         -55.8310   -15.7540    22.6760 h1         1 EVZ       0.077200
     35 H6         -56.7780   -14.5540    21.7690 h1         1 EVZ       0.077200
     36 H7         -56.9590   -17.9990    23.2930 ha         1 EVZ       0.119500
     37 H8         -58.5100   -19.7650    22.5150 ha         1 EVZ       0.125000
     38 H9         -61.1480   -12.2780    21.7270 ha         1 EVZ       0.134000
     39 H10        -64.9140   -14.7640    18.2820 h1         1 EVZ       0.051367
     40 H11        -66.2490   -15.8050    17.7450 h1         1 EVZ       0.051367
     41 H12        -66.2900   -15.0640    19.3650 h1         1 EVZ       0.051367
     42 H13        -65.5800   -19.6130    20.6020 hc         1 EVZ       0.083700
     43 H14        -64.3880   -17.5220    21.8550 hc         1 EVZ       0.058450
     44 H15        -63.8630   -19.1700    22.1130 hc         1 EVZ       0.058450
     45 H16        -61.9390   -17.6680    21.7480 h1         1 EVZ       0.060200
     46 H17        -62.5480   -17.2100    20.1480 h1         1 EVZ       0.060200
     47 H18        -63.7280   -18.8190    18.3110 hc         1 EVZ       0.058450
     48 H19        -64.6080   -20.3130    18.5560 hc         1 EVZ       0.058450
     49 H20        -62.9570   -20.9880    20.3390 h1         1 EVZ       0.060200
     50 H21        -62.1710   -20.6750    18.7800 h1         1 EVZ       0.060200
     51 H22        -65.6160   -14.2290    22.3540 hn         1 EVZ       0.493000
     52 H23        -65.7130   -15.6270    23.3670 hn         1 EVZ       0.493000
     53 H3         -60.0220   -16.0510    24.8060 ha         1 EVZ       0.136000
@<TRIPOS>BOND
     1     1     2 2   
     2     2    17 1   
     3     2    18 1   
     4     3     5 ar  
     5     3    10 ar  
     6     3    31 1   
     7     4    13 1   
     8     4    23 1   
     9     4    24 2   
    10     5    13 ar  
    11     5    32 1   
    12     6     8 ar  
    13     6    26 ar  
    14     6    53 1   
    15     7    15 ar  
    16     7    26 ar  
    17     7    30 1   
    18     8     9 ar  
    19     8    25 1   
    20     9    15 ar  
    21     9    33 1   
    22    10    11 1   
    23    10    12 ar  
    24    11    25 1   
    25    11    34 1   
    26    11    35 1   
    27    12    14 ar  
    28    12    36 1   
    29    13    14 ar  
    30    14    37 1   
    31    15    38 1   
    32    16    17 1   
    33    16    39 1   
    34    16    40 1   
    35    16    41 1   
    36    18    19 1   
    37    18    21 1   
    38    18    42 1   
    39    19    20 1   
    40    19    43 1   
    41    19    44 1   
    42    20    23 1   
    43    20    45 1   
    44    20    46 1   
    45    21    22 1   
    46    21    47 1   
    47    21    48 1   
    48    22    23 1   
    49    22    49 1   
    50    22    50 1   
    51    26    27 1   
    52    27    28 1   
    53    28    29 1   
    54    28    30 2   
    55    29    51 1   
    56    29    52 1   
@<TRIPOS>SUBSTRUCTURE
     1 EVZ         1 TEMP              0 ****  ****    0 ROOT
