@<TRIPOS>MOLECULE
EW0
   56    59     1     0     0
SMALL
No Charge or Current Charge


@<TRIPOS>ATOM
      1 C10         -4.9690    38.1170   -43.4960 ca         1 EW0       0.062000
      2 C13         -8.5900    38.5650   -44.2330 cc         1 EW0      -0.152300
      3 C15         -7.5560    36.3360   -43.4050 c3         1 EW0       0.060900
      4 C17        -12.6190    38.1420   -46.5420 ca         1 EW0      -0.360500
      5 C20        -12.9010    36.3420   -48.6920 ca         1 EW0       0.202100
      6 C21        -13.1110    35.9090   -47.3750 ca         1 EW0      -0.195000
      7 C22        -12.9720    36.8000   -46.2980 ca         1 EW0       0.038000
      8 C24         -6.6510    47.1540   -44.8220 c3         1 EW0       0.148900
      9 C1          -5.7380    44.4120   -45.1370 ca         1 EW0      -0.254000
     10 C2          -5.2560    43.1080   -45.3060 ca         1 EW0       0.345000
     11 C3          -4.1190    42.8790   -46.0980 ca         1 EW0      -0.190000
     12 C4          -3.4470    43.9540   -46.7000 ca         1 EW0      -0.047000
     13 C5          -3.9220    45.2620   -46.5140 ca         1 EW0      -0.170000
     14 C6          -5.0670    45.4970   -45.7370 ca         1 EW0       0.170100
     15 C7          -5.6020    40.7680   -44.3280 ca         1 EW0       0.384000
     16 C8          -4.2800    40.4220   -43.9970 ca         1 EW0      -0.206000
     17 C9          -3.9660    39.1060   -43.5910 ca         1 EW0      -0.033000
     18 C11         -6.3010    38.4850   -43.8140 ca         1 EW0       0.014800
     19 C12         -6.5820    39.7700   -44.2120 ca         1 EW0      -0.159800
     20 C14         -8.0010    39.8060   -44.4720 cd         1 EW0      -0.186200
     21 C16        -10.0390    38.2410   -44.4070 c          1 EW0       0.666300
     22 C18        -12.4030    38.5830   -47.8630 ca         1 EW0       0.038000
     23 C19        -12.5450    37.6850   -48.9350 ca         1 EW0      -0.195000
     24 C23        -12.8610    35.7570   -51.0900 c3         1 EW0       0.146900
     25 N1          -5.9520    42.0620   -44.7110 nu         1 EW0      -0.987000
     26 N2          -7.5010    37.7540   -43.8140 na         1 EW0      -0.046700
     27 N3         -10.7920    39.2860   -44.8360 ns         1 EW0      -0.582300
     28 O1         -10.5200    37.1400   -44.1910 o          1 EW0      -0.554100
     29 O2         -12.7080    40.6480   -45.6520 o          1 EW0      -0.536500
     30 O3         -13.1010    38.7400   -43.9920 o          1 EW0      -0.536500
     31 O4         -13.0540    35.4170   -49.7050 os         1 EW0      -0.341100
     32 O5          -5.4910    46.8030   -45.5960 os         1 EW0      -0.348100
     33 S1         -12.4260    39.2920   -45.1720 sy         1 EW0       1.221300
     34 Cl1         -4.4790    36.5000   -42.9840 cl         1 EW0      -0.209000
     35 H1          -7.1800    36.2350   -42.3800 h1         1 EW0       0.066033
     36 H2          -8.5800    35.9540   -43.4300 h1         1 EW0       0.066033
     37 H3          -6.9450    35.7330   -44.0870 h1         1 EW0       0.066033
     38 H4         -13.3830    34.8740   -47.1860 ha         1 EW0       0.130000
     39 H5         -13.1340    36.4400   -45.2820 ha         1 EW0       0.136500
     40 H6          -6.8070    48.2400   -44.8420 h1         1 EW0       0.042700
     41 H7          -7.5510    46.6740   -45.2270 h1         1 EW0       0.042700
     42 H8          -6.5290    46.8480   -43.7750 h1         1 EW0       0.042700
     43 H9          -6.6250    44.5690   -44.5320 ha         1 EW0       0.116000
     44 H10         -3.7620    41.8680   -46.2670 ha         1 EW0       0.128000
     45 H11         -2.5650    43.7750   -47.3130 ha         1 EW0       0.117000
     46 H12         -3.4050    46.0980   -46.9780 ha         1 EW0       0.131000
     47 H13         -3.4950    41.1690   -44.0340 ha         1 EW0       0.131000
     48 H14         -2.9380    38.8520   -43.3400 ha         1 EW0       0.128000
     49 H15         -8.5250    40.6910   -44.8220 ha         1 EW0       0.199000
     50 H16        -12.1250    39.6170   -48.0660 ha         1 EW0       0.136500
     51 H17        -12.3740    38.0500   -49.9430 ha         1 EW0       0.130000
     52 H18        -13.0310    34.8780   -51.7240 h1         1 EW0       0.048700
     53 H19        -13.5620    36.5410   -51.4010 h1         1 EW0       0.048700
     54 H20        -11.8360    36.1080   -51.2660 h1         1 EW0       0.048700
     55 H21         -6.9200    42.2900   -44.4970 hn         1 EW0       0.493000
     56 H22        -10.3690    40.1730   -45.0310 hn         1 EW0       0.346500
@<TRIPOS>BOND
     1     1    17 ar  
     2     1    18 ar  
     3     1    34 1   
     4     2    20 2   
     5     2    21 1   
     6     2    26 1   
     7     3    26 1   
     8     3    35 1   
     9     3    36 1   
    10     3    37 1   
    11     4     7 ar  
    12     4    22 ar  
    13     4    33 1   
    14     5     6 ar  
    15     5    23 ar  
    16     5    31 1   
    17     6     7 ar  
    18     6    38 1   
    19     7    39 1   
    20     8    32 1   
    21     8    40 1   
    22     8    41 1   
    23     8    42 1   
    24     9    10 ar  
    25     9    14 ar  
    26     9    43 1   
    27    10    11 ar  
    28    10    25 1   
    29    11    12 ar  
    30    11    44 1   
    31    12    13 ar  
    32    12    45 1   
    33    13    14 ar  
    34    13    46 1   
    35    14    32 1   
    36    15    16 ar  
    37    15    19 ar  
    38    15    25 1   
    39    16    17 ar  
    40    16    47 1   
    41    17    48 1   
    42    18    19 ar  
    43    18    26 1   
    44    19    20 1   
    45    20    49 1   
    46    21    27 1   
    47    21    28 2   
    48    22    23 ar  
    49    22    50 1   
    50    23    51 1   
    51    24    31 1   
    52    24    52 1   
    53    24    53 1   
    54    24    54 1   
    55    25    55 1   
    56    27    33 1   
    57    27    56 1   
    58    29    33 2   
    59    30    33 2   
@<TRIPOS>SUBSTRUCTURE
     1 EW0         1 TEMP              0 ****  ****    0 ROOT
