@<TRIPOS>MOLECULE
EW0
   56    59     1     0     0
SMALL
abcg2


@<TRIPOS>ATOM
      1 C10         -5.0880    38.1650   -43.3290 ca         1 EW0       0.062000
      2 C13         -8.6490    38.4250   -43.9670 cc         1 EW0      -0.152300
      3 C15         -7.7050    36.4520   -42.6950 c3         1 EW0       0.060900
      4 C17        -12.5070    37.9460   -46.1790 ca         1 EW0      -0.360500
      5 C20        -12.3620    36.9970   -48.7790 ca         1 EW0       0.202100
      6 C21        -12.6620    36.1220   -47.7260 ca         1 EW0      -0.195000
      7 C22        -12.7310    36.5920   -46.4310 ca         1 EW0       0.038000
      8 C24         -6.8700    46.8150   -45.5450 c3         1 EW0       0.148900
      9 C1          -5.9660    44.1520   -45.6430 ca         1 EW0      -0.254000
     10 C2          -5.4870    42.8350   -45.7160 ca         1 EW0       0.345000
     11 C3          -4.3260    42.5600   -46.4410 ca         1 EW0      -0.190000
     12 C4          -3.6530    43.6040   -47.0700 ca         1 EW0      -0.047000
     13 C5          -4.1150    44.9080   -47.0040 ca         1 EW0      -0.170000
     14 C6          -5.2860    45.1790   -46.2890 ca         1 EW0       0.170100
     15 C7          -5.8170    40.6500   -44.5360 ca         1 EW0       0.384000
     16 C8          -4.4980    40.3610   -44.2110 ca         1 EW0      -0.206000
     17 C9          -4.1510    39.1360   -43.6260 ca         1 EW0      -0.033000
     18 C11         -6.4350    38.4290   -43.6270 ca         1 EW0       0.014800
     19 C12         -6.7910    39.6660   -44.2360 ca         1 EW0      -0.159800
     20 C14         -8.1940    39.6370   -44.4380 cd         1 EW0      -0.186200
     21 C16        -10.0050    37.8770   -44.0970 c          1 EW0       0.666300
     22 C18        -12.2060    38.8230   -47.2180 ca         1 EW0       0.038000
     23 C19        -12.1310    38.3530   -48.5190 ca         1 EW0      -0.195000
     24 C23        -12.0020    37.2790   -51.1280 c3         1 EW0       0.146900
     25 N1          -6.2450    41.8400   -45.0960 nu         1 EW0      -0.987000
     26 N2          -7.5830    37.6860   -43.4710 na         1 EW0      -0.046700
     27 N3         -11.0010    38.8390   -44.0960 ns         1 EW0      -0.582300
     28 O1         -10.2580    36.6900   -44.2270 o          1 EW0      -0.554100
     29 O2         -13.1640    39.8850   -44.5380 o          1 EW0      -0.536500
     30 O3         -13.1500    37.5490   -43.6860 o          1 EW0      -0.536500
     31 O4         -12.3160    36.4450   -50.0080 os         1 EW0      -0.341100
     32 O5          -5.6860    46.4800   -46.2680 os         1 EW0      -0.348100
     33 S1         -12.5940    38.5600   -44.5420 sy         1 EW0       1.221300
     34 CL1         -4.5300    36.6470   -42.6550 cl         1 EW0      -0.209000
     35 H1          -7.1870    36.5650   -41.7460 h1         1 EW0       0.066033
     36 H2          -8.7550    36.2610   -42.5090 h1         1 EW0       0.066033
     37 H3          -7.2840    35.6090   -43.2400 h1         1 EW0       0.066033
     38 H4         -12.8370    35.0780   -47.9460 ha         1 EW0       0.130000
     39 H5         -12.9560    35.9200   -45.6150 ha         1 EW0       0.136500
     40 H6          -6.9980    47.8880   -45.6650 h1         1 EW0       0.042700
     41 H7          -7.7400    46.2940   -45.9530 h1         1 EW0       0.042700
     42 H8          -6.7640    46.5740   -44.4850 h1         1 EW0       0.042700
     43 H9          -6.8640    44.3470   -45.0740 ha         1 EW0       0.116000
     44 H10         -3.9640    41.5480   -46.5370 ha         1 EW0       0.128000
     45 H11         -2.7540    43.3870   -47.6330 ha         1 EW0       0.117000
     46 H12         -3.5940    45.7190   -47.4960 ha         1 EW0       0.131000
     47 H13         -3.7180    41.0840   -44.3900 ha         1 EW0       0.131000
     48 H14         -3.1120    38.9420   -43.3980 ha         1 EW0       0.128000
     49 H15         -8.7920    40.3830   -44.9370 ha         1 EW0       0.199000
     50 H16        -12.0340    39.8710   -47.0160 ha         1 EW0       0.136500
     51 H17        -11.9000    39.0430   -49.3160 ha         1 EW0       0.130000
     52 H18        -12.0150    36.6240   -51.9940 h1         1 EW0       0.048700
     53 H19        -12.7480    38.0670   -51.2480 h1         1 EW0       0.048700
     54 H20        -11.0110    37.7230   -51.0140 h1         1 EW0       0.048700
     55 H21         -7.2050    42.0880   -44.9120 hn         1 EW0       0.493000
     56 H22        -10.7660    39.8160   -43.9790 hn         1 EW0       0.346500
@<TRIPOS>BOND
     1     1    17 ar  
     2     1    18 ar  
     3     1    34 1   
     4     2    20 2   
     5     2    21 1   
     6     2    26 1   
     7     3    26 1   
     8     3    35 1   
     9     3    36 1   
    10     3    37 1   
    11     4     7 ar  
    12     4    22 ar  
    13     4    33 1   
    14     5     6 ar  
    15     5    23 ar  
    16     5    31 1   
    17     6     7 ar  
    18     6    38 1   
    19     7    39 1   
    20     8    32 1   
    21     8    40 1   
    22     8    41 1   
    23     8    42 1   
    24     9    10 ar  
    25     9    14 ar  
    26     9    43 1   
    27    10    11 ar  
    28    10    25 1   
    29    11    12 ar  
    30    11    44 1   
    31    12    13 ar  
    32    12    45 1   
    33    13    14 ar  
    34    13    46 1   
    35    14    32 1   
    36    15    16 ar  
    37    15    19 ar  
    38    15    25 1   
    39    16    17 ar  
    40    16    47 1   
    41    17    48 1   
    42    18    19 ar  
    43    18    26 1   
    44    19    20 1   
    45    20    49 1   
    46    21    27 1   
    47    21    28 2   
    48    22    23 ar  
    49    22    50 1   
    50    23    51 1   
    51    24    31 1   
    52    24    52 1   
    53    24    53 1   
    54    24    54 1   
    55    25    55 1   
    56    27    33 1   
    57    27    56 1   
    58    29    33 2   
    59    30    33 2   
@<TRIPOS>SUBSTRUCTURE
     1 EW0         1 TEMP              0 ****  ****    0 ROOT
