@<TRIPOS>MOLECULE
EW1
   73    78     1     0     0
SMALL
No Charge or Current Charge


@<TRIPOS>ATOM
      1 C4           7.6130     0.5910    -0.7300 ca         1 EW1      -0.056600
      2 C5           6.6420     1.8660     0.7240 cc         1 EW1       0.398700
      3 C6           4.7420     0.3230     1.4550 cy         1 EW1       0.043300
      4 N1           5.9230     0.6610     0.6750 na         1 EW1      -0.171600
      5 C7           3.4080    -0.0620     0.7350 cy         1 EW1       0.093000
      6 C8           3.8950     1.4290     2.1690 cy         1 EW1       0.093000
      7 N2           2.7130     0.5350     1.9250 nj         1 EW1      -0.426800
      8 C9           1.7990     1.4270     1.2740 c          1 EW1       0.662700
      9 C10          0.4290     1.1860     1.8110 cc         1 EW1      -0.236600
     10 C11         -0.6960     1.8630     1.4090 cd         1 EW1      -0.120000
     11 C12         -3.1660     1.7730     2.0250 c3         1 EW1       0.069600
     12 N3          -1.7650     1.3400     2.1460 na         1 EW1       0.034000
     13 C13         -3.9040     1.2560     0.7550 c6         1 EW1      -0.083700
     14 C14         -3.9890    -0.2910     0.7060 c6         1 EW1      -0.073400
     15 C15         -4.7730    -0.7740    -0.5390 c6         1 EW1       0.167800
     16 N4          -6.1480    -0.1900    -0.6020 n3         1 EW1      -0.716600
     17 O            1.9500     2.2900     0.4090 o          1 EW1      -0.618100
     18 C3           6.5620    -0.1190    -0.2420 ca         1 EW1      -0.009200
     19 C2           6.3090    -1.4210    -0.6880 ca         1 EW1      -0.229000
     20 N            7.6890     1.8570    -0.1310 nd         1 EW1      -0.553100
     21 C27          8.4320    -0.0250    -1.7060 ca         1 EW1       0.675900
     22 N5           9.5070     0.5440    -2.2660 nv         1 EW1      -1.046900
     23 N6           8.2430    -1.2630    -2.1660 nb         1 EW1      -0.788000
     24 C1           7.1850    -1.9530    -1.6620 ca         1 EW1       0.421300
     25 C            6.9920    -3.3580    -2.1980 c3         1 EW1      -0.143400
     26 C26          0.0460     0.2470     2.7990 cc         1 EW1      -0.150000
     27 C25         -1.3020     0.3400     3.0080 cd         1 EW1      -0.204000
     28 C17         -5.3340     1.8420     0.6550 c6         1 EW1      -0.073400
     29 C16         -6.0800     1.3030    -0.5900 c6         1 EW1       0.167800
     30 C18         -6.9650    -0.7350    -1.7290 c3         1 EW1       0.227700
     31 C24         -6.9500    -2.2550    -1.7580 c2         1 EW1      -0.234200
     32 C23         -7.5520    -3.0850    -0.8900 c2         1 EW1      -0.185200
     33 C22         -8.3790    -2.6680     0.3080 c3         1 EW1      -0.041200
     34 C21         -9.6030    -1.8060    -0.0690 c3         1 EW1      -0.062400
     35 C20         -9.2680    -0.3570    -0.4950 c3         1 EW1      -0.064400
     36 C19         -8.4330    -0.2170    -1.7950 c3         1 EW1      -0.065400
     37 H1           6.3630     2.6810     1.3800 h5         1 EW1       0.068800
     38 H2           5.0620    -0.4560     2.1570 h1         1 EW1       0.090700
     39 H3           3.2770     0.4280    -0.2380 h1         1 EW1       0.067200
     40 H4           3.2510    -1.1410     0.6380 h1         1 EW1       0.067200
     41 H5           4.1310     1.5510     3.2320 h1         1 EW1       0.067200
     42 H6           3.9160     2.4030     1.6660 h1         1 EW1       0.067200
     43 H7          -0.8190     2.6520     0.6740 h4         1 EW1       0.164000
     44 H8          -3.7130     1.4400     2.9160 h1         1 EW1       0.062200
     45 H9          -3.1800     2.8700     2.0200 h1         1 EW1       0.062200
     46 H10         -3.3230     1.6050    -0.1110 hc         1 EW1       0.058700
     47 H11         -2.9820    -0.7290     0.6880 hc         1 EW1       0.049200
     48 H12         -4.4790    -0.6700     1.6130 hc         1 EW1       0.049200
     49 H13         -4.2060    -0.5080    -1.4440 h1         1 EW1       0.034950
     50 H14         -4.8110    -1.8720    -0.4950 h1         1 EW1       0.034950
     51 H16          5.4790    -2.0060    -0.3030 ha         1 EW1       0.125000
     52 H17          9.9010     1.3250    -1.7550 hn         1 EW1       0.483500
     53 H18         10.1600    -0.1030    -2.6870 hn         1 EW1       0.483500
     54 H19          7.1320    -3.3920    -3.2850 hc         1 EW1       0.049033
     55 H20          7.7100    -4.0490    -1.7420 hc         1 EW1       0.049033
     56 H21          5.9840    -3.7310    -1.9830 hc         1 EW1       0.049033
     57 H22          0.7190    -0.4380     3.3080 ha         1 EW1       0.130000
     58 H23         -1.9530    -0.2110     3.6780 h4         1 EW1       0.148000
     59 H24         -5.9080     1.5910     1.5580 hc         1 EW1       0.049200
     60 H25         -5.2900     2.9390     0.6070 hc         1 EW1       0.049200
     61 H26         -5.5740     1.6670    -1.4970 h1         1 EW1       0.034950
     62 H27         -7.0850     1.7450    -0.5840 h1         1 EW1       0.034950
     63 H28         -6.4920    -0.4090    -2.6660 h1         1 EW1       0.018700
     64 H29         -6.3790    -2.6650    -2.5900 ha         1 EW1       0.167000
     65 H30         -7.4650    -4.1650    -1.0210 ha         1 EW1       0.163000
     66 H31         -8.7360    -3.5650     0.8300 hc         1 EW1       0.048200
     67 H32         -7.7560    -2.1250     1.0300 hc         1 EW1       0.048200
     68 H33        -10.1680    -2.3040    -0.8670 hc         1 EW1       0.035700
     69 H34        -10.2700    -1.7590     0.8000 hc         1 EW1       0.035700
     70 H35        -10.2140     0.1790    -0.6410 hc         1 EW1       0.038700
     71 H36         -8.7570     0.1530     0.3310 hc         1 EW1       0.038700
     72 H37         -8.4240     0.8380    -2.0900 hc         1 EW1       0.038200
     73 H38         -8.9530    -0.7380    -2.6080 hc         1 EW1       0.038200
@<TRIPOS>BOND
     1     1    18 ar  
     2     1    20 1   
     3     1    21 ar  
     4     2     4 1   
     5     2    20 2   
     6     2    37 1   
     7     3     4 1   
     8     3     5 1   
     9     3     6 1   
    10     3    38 1   
    11     4    18 1   
    12     5     7 1   
    13     5    39 1   
    14     5    40 1   
    15     6     7 1   
    16     6    41 1   
    17     6    42 1   
    18     7     8 1   
    19     8     9 1   
    20     8    17 2   
    21     9    10 2   
    22     9    26 1   
    23    10    12 1   
    24    10    43 1   
    25    11    12 1   
    26    11    13 1   
    27    11    44 1   
    28    11    45 1   
    29    12    27 1   
    30    13    14 1   
    31    13    28 1   
    32    13    46 1   
    33    14    15 1   
    34    14    47 1   
    35    14    48 1   
    36    15    16 1   
    37    15    49 1   
    38    15    50 1   
    39    16    29 1   
    40    16    30 1   
    41    18    19 ar  
    42    19    24 ar  
    43    19    51 1   
    44    21    22 1   
    45    21    23 ar  
    46    22    52 1   
    47    22    53 1   
    48    23    24 ar  
    49    24    25 1   
    50    25    54 1   
    51    25    55 1   
    52    25    56 1   
    53    26    27 2   
    54    26    57 1   
    55    27    58 1   
    56    28    29 1   
    57    28    59 1   
    58    28    60 1   
    59    29    61 1   
    60    29    62 1   
    61    30    31 1   
    62    30    36 1   
    63    30    63 1   
    64    31    32 2   
    65    31    64 1   
    66    32    33 1   
    67    32    65 1   
    68    33    34 1   
    69    33    66 1   
    70    33    67 1   
    71    34    35 1   
    72    34    68 1   
    73    34    69 1   
    74    35    36 1   
    75    35    70 1   
    76    35    71 1   
    77    36    72 1   
    78    36    73 1   
@<TRIPOS>SUBSTRUCTURE
     1 EW1         1 TEMP              0 ****  ****    0 ROOT
