@<TRIPOS>MOLECULE
EW1
   73    78     1     0     0
SMALL
bcc


@<TRIPOS>ATOM
      1 C4           7.6030     0.5800     0.5660 ca         1 EW1      -0.121900
      2 C5           5.6160     1.2940     0.5310 cc         1 EW1       0.398700
      3 C6           4.4260    -0.5720    -0.6470 cy         1 EW1       0.014000
      4 N1           5.5780     0.0650    -0.0690 na         1 EW1      -0.142300
      5 C7           3.6970     0.1970    -1.7730 cy         1 EW1       0.093000
      6 C8           3.1180    -0.5140     0.1710 cy         1 EW1       0.093000
      7 N2           2.4940     0.1520    -0.9630 nj         1 EW1      -0.493800
      8 C9           1.3500     0.8210    -1.1840 c          1 EW1       0.729700
      9 C10          0.2950     0.7590    -0.1680 cc         1 EW1      -0.236600
     10 C11         -0.8520     1.5220    -0.2730 cd         1 EW1      -0.087300
     11 C12         -2.9520     1.8430     1.0080 c3         1 EW1       0.040300
     12 N3          -1.6350     1.2730     0.7960 na         1 EW1      -0.038100
     13 C13         -4.0130     1.2430     0.0920 c6         1 EW1      -0.083700
     14 C14         -4.2060    -0.2520     0.3030 c6         1 EW1      -0.073400
     15 C15         -5.3330    -0.7860    -0.5660 c6         1 EW1       0.167800
     16 N4          -6.5860    -0.0960    -0.3060 n3         1 EW1      -0.716600
     17 O            1.2090     1.4620    -2.2240 o          1 EW1      -0.618100
     18 C3           6.8590    -0.4120    -0.0610 ca         1 EW1      -0.009200
     19 C2           7.4510    -1.5890    -0.5290 ca         1 EW1      -0.312300
     20 N            6.8040     1.6360     0.9280 nd         1 EW1      -0.553100
     21 C27          8.9870     0.3760     0.7370 ca         1 EW1       0.741200
     22 N5           9.7680     1.3290     1.3040 nv         1 EW1      -0.936500
     23 N6           9.5480    -0.7410     0.3030 nb         1 EW1      -0.788000
     24 C1           8.8110    -1.6880    -0.3100 ca         1 EW1       0.486600
     25 C            9.5680    -2.9020    -0.7590 c3         1 EW1      -0.143400
     26 C26          0.1720     0.0070     1.0370 cc         1 EW1      -0.168000
     27 C25         -1.0290     0.3480     1.5970 cd         1 EW1      -0.171300
     28 C17         -5.3490     1.9450     0.2910 c6         1 EW1      -0.073400
     29 C16         -6.4350     1.3240    -0.5740 c6         1 EW1       0.167800
     30 C18         -7.7020    -0.6900    -1.0440 c3         1 EW1       0.227700
     31 C24         -7.8080    -2.1760    -0.7840 c2         1 EW1      -0.184200
     32 C23         -8.1350    -2.7420     0.3740 c2         1 EW1      -0.135200
     33 C22         -8.4610    -2.0190     1.6500 c3         1 EW1      -0.041200
     34 C21         -9.6550    -1.0710     1.5270 c3         1 EW1      -0.062400
     35 C20         -9.3810     0.1990     0.7280 c3         1 EW1      -0.064400
     36 C19         -9.0390     0.0060    -0.7470 c3         1 EW1      -0.065400
     37 H1           4.7260     1.8950     0.6480 h5         1 EW1       0.068800
     38 H2           4.7050    -1.5840    -0.9270 h1         1 EW1       0.090700
     39 H3           4.0780     1.2050    -1.9550 h1         1 EW1       0.067200
     40 H4           3.6280    -0.3330    -2.7240 h1         1 EW1       0.067200
     41 H5           2.7000    -1.4920     0.4130 h1         1 EW1       0.067200
     42 H6           3.1650     0.0870     1.0820 h1         1 EW1       0.067200
     43 H7          -1.1450     2.2260    -1.0360 h4         1 EW1       0.182000
     44 H8          -3.2170     1.6840     2.0550 h1         1 EW1       0.062200
     45 H9          -2.8890     2.9220     0.8520 h1         1 EW1       0.062200
     46 H10         -3.6970     1.4090    -0.9470 hc         1 EW1       0.058700
     47 H11         -3.2910    -0.8030     0.0720 hc         1 EW1       0.049200
     48 H12         -4.4420    -0.4460     1.3550 hc         1 EW1       0.049200
     49 H13         -5.0410    -0.7020    -1.6300 h1         1 EW1       0.034950
     50 H14         -5.4640    -1.8480    -0.3600 h1         1 EW1       0.034950
     51 H16          6.9020    -2.3750    -1.0280 ha         1 EW1       0.143000
     52 H17          9.3190     2.0400     1.8570 hn         1 EW1       0.428300
     53 H18         10.6780     1.0460     1.6260 hn         1 EW1       0.428300
     54 H19         10.3790    -2.6250    -1.4350 hc         1 EW1       0.049033
     55 H20         10.0230    -3.4120     0.0920 hc         1 EW1       0.049033
     56 H21          8.9240    -3.6120    -1.2740 hc         1 EW1       0.049033
     57 H22          0.8610    -0.7080     1.4540 ha         1 EW1       0.148000
     58 H23         -1.4990     0.0050     2.5040 h4         1 EW1       0.166000
     59 H24         -5.6500     1.8790     1.3420 hc         1 EW1       0.049200
     60 H25         -5.2630     3.0080     0.0480 hc         1 EW1       0.049200
     61 H26         -6.2040     1.5080    -1.6400 h1         1 EW1       0.034950
     62 H27         -7.3710     1.8410    -0.3650 h1         1 EW1       0.034950
     63 H28         -7.5300    -0.5720    -2.1310 h1         1 EW1       0.018700
     64 H29         -7.6140    -2.8260    -1.6310 ha         1 EW1       0.117000
     65 H30         -8.1820    -3.8270     0.4050 ha         1 EW1       0.113000
     66 H31         -8.6710    -2.7550     2.4290 hc         1 EW1       0.048200
     67 H32         -7.5900    -1.4510     1.9880 hc         1 EW1       0.048200
     68 H33        -10.5010    -1.6090     1.0890 hc         1 EW1       0.035700
     69 H34         -9.9670    -0.7770     2.5330 hc         1 EW1       0.035700
     70 H35        -10.2680     0.8360     0.7850 hc         1 EW1       0.038700
     71 H36         -8.5790     0.7550     1.2200 hc         1 EW1       0.038700
     72 H37         -9.0550     0.9820    -1.2390 hc         1 EW1       0.038200
     73 H38         -9.8250    -0.5760    -1.2360 hc         1 EW1       0.038200
@<TRIPOS>BOND
     1     1    18 ar  
     2     1    20 1   
     3     1    21 ar  
     4     2     4 1   
     5     2    20 2   
     6     2    37 1   
     7     3     4 1   
     8     3     5 1   
     9     3     6 1   
    10     3    38 1   
    11     4    18 1   
    12     5     7 1   
    13     5    39 1   
    14     5    40 1   
    15     6     7 1   
    16     6    41 1   
    17     6    42 1   
    18     7     8 1   
    19     8     9 1   
    20     8    17 2   
    21     9    10 2   
    22     9    26 1   
    23    10    12 1   
    24    10    43 1   
    25    11    12 1   
    26    11    13 1   
    27    11    44 1   
    28    11    45 1   
    29    12    27 1   
    30    13    14 1   
    31    13    28 1   
    32    13    46 1   
    33    14    15 1   
    34    14    47 1   
    35    14    48 1   
    36    15    16 1   
    37    15    49 1   
    38    15    50 1   
    39    16    29 1   
    40    16    30 1   
    41    18    19 ar  
    42    19    24 ar  
    43    19    51 1   
    44    21    22 1   
    45    21    23 ar  
    46    22    52 1   
    47    22    53 1   
    48    23    24 ar  
    49    24    25 1   
    50    25    54 1   
    51    25    55 1   
    52    25    56 1   
    53    26    27 2   
    54    26    57 1   
    55    27    58 1   
    56    28    29 1   
    57    28    59 1   
    58    28    60 1   
    59    29    61 1   
    60    29    62 1   
    61    30    31 1   
    62    30    36 1   
    63    30    63 1   
    64    31    32 2   
    65    31    64 1   
    66    32    33 1   
    67    32    65 1   
    68    33    34 1   
    69    33    66 1   
    70    33    67 1   
    71    34    35 1   
    72    34    68 1   
    73    34    69 1   
    74    35    36 1   
    75    35    70 1   
    76    35    71 1   
    77    36    72 1   
    78    36    73 1   
@<TRIPOS>SUBSTRUCTURE
     1 EW1         1 TEMP              0 ****  ****    0 ROOT
