@<TRIPOS>MOLECULE
EW2
   43    47     1     0     0
SMALL
No Charge or Current Charge


@<TRIPOS>ATOM
      1 C10          0.3600     1.9030     1.4010 c3         1 EW2       0.163900
      2 C13          3.0100     2.8480    -0.8810 cc         1 EW2       0.217900
      3 C15          0.9250     2.3430    -1.0460 cd         1 EW2       0.387400
      4 C17          1.0020    -0.9160     0.0100 cc         1 EW2      -0.181000
      5 C21          2.2800    -0.7710     0.6730 ca         1 EW2      -0.080800
      6 C22          3.2280    -1.3240    -0.1470 ca         1 EW2      -0.045200
      7 C24          2.6170    -0.3400     1.9680 ca         1 EW2      -0.068000
      8 C26          4.9580    -0.8570     1.4690 ca         1 EW2      -0.093000
      9 C02         -3.7810    -0.4550     0.4540 ca         1 EW2       0.015800
     10 C03         -4.6230    -0.4970     1.5860 ca         1 EW2      -0.111000
     11 C04         -6.0130    -0.6360     1.4300 ca         1 EW2      -0.096000
     12 C05         -6.5700    -0.7370     0.1440 ca         1 EW2      -0.111000
     13 C06         -5.7370    -0.7000    -0.9880 ca         1 EW2      -0.096000
     14 C07         -4.3470    -0.5610    -0.8330 ca         1 EW2      -0.111000
     15 C08         -1.9490     0.8320     1.2320 cd         1 EW2      -0.142000
     16 C09         -0.5910     0.7670     1.0880 cc         1 EW2      -0.228300
     17 C12          2.6050     2.5950     0.4000 cd         1 EW2      -0.222000
     18 C16         -0.3230    -0.4520     0.3750 cc         1 EW2       0.368800
     19 C18          1.2600    -1.6870    -1.1280 cd         1 EW2       0.148900
     20 C23          4.5830    -1.3700     0.2110 ca         1 EW2      -0.123000
     21 C25          3.9730    -0.3620     2.3530 ca         1 EW2      -0.136000
     22 N01         -2.3990    -0.3180     0.6040 na         1 EW2       0.233000
     23 N11          1.2650     2.2620     0.2970 na         1 EW2      -0.162500
     24 N14          1.9810     2.7010    -1.7680 nc         1 EW2      -0.677000
     25 N19          2.6470    -1.8760    -1.2710 na         1 EW2      -0.216700
     26 N27         -1.4270    -1.0820     0.0120 nd         1 EW2      -0.492800
     27 Cl2          0.1640    -2.2110    -2.3720 cl         1 EW2      -0.118000
     28 H102        -0.2430     2.7950     1.6150 h1         1 EW2       0.063200
     29 H101         0.9310     1.7130     2.3120 h1         1 EW2       0.063200
     30 H131         3.9940     3.1360    -1.2270 h4         1 EW2       0.032100
     31 H151        -0.0750     2.1340    -1.4080 h5         1 EW2       0.050100
     32 H241         1.8570    -0.0510     2.6840 ha         1 EW2       0.119000
     33 H261         6.0010    -0.8830     1.7760 ha         1 EW2       0.113000
     34 H031        -4.1990    -0.4240     2.5850 ha         1 EW2       0.132000
     35 H041        -6.6580    -0.6670     2.3060 ha         1 EW2       0.119500
     36 H051        -7.6460    -0.8450     0.0240 ha         1 EW2       0.119000
     37 H061        -6.1690    -0.7800    -1.9830 ha         1 EW2       0.119500
     38 H071        -3.7070    -0.5340    -1.7130 ha         1 EW2       0.132000
     39 H081        -2.6020     1.5930     1.6440 h4         1 EW2       0.159000
     40 H121         3.1550     2.6170     1.3330 h4         1 EW2       0.160000
     41 H231         5.3240    -1.8080    -0.4540 ha         1 EW2       0.117000
     42 H251         4.2590    -0.0210     3.3450 ha         1 EW2       0.113000
     43 H191         3.1130    -2.3520    -2.0350 hn         1 EW2       0.364000
@<TRIPOS>BOND
     1     1    16 1   
     2     1    23 1   
     3     1    28 1   
     4     1    29 1   
     5     2    17 2   
     6     2    24 1   
     7     2    30 1   
     8     3    23 1   
     9     3    24 2   
    10     3    31 1   
    11     4     5 1   
    12     4    18 1   
    13     4    19 2   
    14     5     6 ar  
    15     5     7 ar  
    16     6    20 ar  
    17     6    25 1   
    18     7    21 ar  
    19     7    32 1   
    20     8    20 ar  
    21     8    21 ar  
    22     8    33 1   
    23     9    10 ar  
    24     9    14 ar  
    25     9    22 1   
    26    10    11 ar  
    27    10    34 1   
    28    11    12 ar  
    29    11    35 1   
    30    12    13 ar  
    31    12    36 1   
    32    13    14 ar  
    33    13    37 1   
    34    14    38 1   
    35    15    16 2   
    36    15    22 1   
    37    15    39 1   
    38    16    18 1   
    39    17    23 1   
    40    17    40 1   
    41    18    26 2   
    42    19    25 1   
    43    19    27 1   
    44    20    41 1   
    45    21    42 1   
    46    22    26 1   
    47    25    43 1   
@<TRIPOS>SUBSTRUCTURE
     1 EW2         1 TEMP              0 ****  ****    0 ROOT
