@<TRIPOS>MOLECULE
EW2
   43    47     1     0     0
SMALL
abcg2


@<TRIPOS>ATOM
      1 C10          0.5110     2.1210     1.3230 c3         1 EW2       0.163900
      2 C13          2.6780     2.9410    -1.4240 cc         1 EW2       0.217900
      3 C15          0.6710     3.3470    -0.8480 cd         1 EW2       0.387400
      4 C17          1.0450    -0.6950    -0.0730 cc         1 EW2      -0.181000
      5 C21          2.1720    -0.9790     0.7650 ca         1 EW2      -0.080800
      6 C22          3.2340    -1.3630    -0.0790 ca         1 EW2      -0.045200
      7 C24          2.3770    -0.9450     2.1480 ca         1 EW2      -0.068000
      8 C26          4.6650    -1.6640     1.7850 ca         1 EW2      -0.093000
      9 C02         -3.6920    -0.4170     0.5140 ca         1 EW2       0.015800
     10 C03         -4.6150     0.0650     1.4340 ca         1 EW2      -0.111000
     11 C04         -5.9470    -0.3060     1.3250 ca         1 EW2      -0.096000
     12 C05         -6.3590    -1.1660     0.3180 ca         1 EW2      -0.111000
     13 C06         -5.4260    -1.6530    -0.5890 ca         1 EW2      -0.096000
     14 C07         -4.0940    -1.2790    -0.5000 ca         1 EW2      -0.111000
     15 C08         -1.8470     1.1190     1.1280 cd         1 EW2      -0.142000
     16 C09         -0.4870     1.0680     0.9800 cc         1 EW2      -0.228300
     17 C12          2.4970     2.3330    -0.2150 cd         1 EW2      -0.222000
     18 C16         -0.2490    -0.1710     0.3380 cc         1 EW2       0.368800
     19 C18          1.4770    -0.9160    -1.3500 cd         1 EW2       0.148900
     20 C23          4.4880    -1.7120     0.4150 ca         1 EW2      -0.123000
     21 C25          3.6210    -1.2840     2.6430 ca         1 EW2      -0.136000
     22 N01         -2.3410    -0.0270     0.6030 na         1 EW2       0.233000
     23 N11          1.2090     2.6080     0.1450 na         1 EW2      -0.162500
     24 N14          1.5290     3.5730    -1.8090 nc         1 EW2      -0.677000
     25 N19          2.7750    -1.3150    -1.3670 na         1 EW2      -0.216700
     26 N27         -1.3790    -0.8140     0.1190 nd         1 EW2      -0.492800
     27 CL2          0.6220    -0.6940    -2.8010 cl         1 EW2      -0.118000
     28 H102         0.0190     2.9590     1.8190 h1         1 EW2       0.063200
     29 H101         1.2680     1.7470     2.0120 h1         1 EW2       0.063200
     30 H131         3.5700     2.9550    -2.0310 h4         1 EW2       0.032100
     31 H151        -0.3510     3.6960    -0.8140 h5         1 EW2       0.050100
     32 H241         1.5740    -0.6670     2.8200 ha         1 EW2       0.119000
     33 H261         5.6270    -1.9280     2.2040 ha         1 EW2       0.113000
     34 H031        -4.3060     0.7130     2.2440 ha         1 EW2       0.132000
     35 H041        -6.6620     0.0730     2.0440 ha         1 EW2       0.119500
     36 H051        -7.3980    -1.4590     0.2410 ha         1 EW2       0.119000
     37 H061        -5.7360    -2.3220    -1.3810 ha         1 EW2       0.119500
     38 H071        -3.3740    -1.6500    -1.2160 ha         1 EW2       0.132000
     39 H081        -2.4810     1.8910     1.5350 h4         1 EW2       0.159000
     40 H121         3.1540     1.7440     0.4030 h4         1 EW2       0.160000
     41 H231         5.2920    -2.0090    -0.2460 ha         1 EW2       0.117000
     42 H251         3.7960    -1.2620     3.7110 ha         1 EW2       0.113000
     43 H191         3.3050    -1.5370    -2.1950 hn         1 EW2       0.364000
@<TRIPOS>BOND
     1     1    16 1   
     2     1    23 1   
     3     1    28 1   
     4     1    29 1   
     5     2    17 2   
     6     2    24 1   
     7     2    30 1   
     8     3    23 1   
     9     3    24 2   
    10     3    31 1   
    11     4     5 1   
    12     4    18 1   
    13     4    19 2   
    14     5     6 ar  
    15     5     7 ar  
    16     6    20 ar  
    17     6    25 1   
    18     7    21 ar  
    19     7    32 1   
    20     8    20 ar  
    21     8    21 ar  
    22     8    33 1   
    23     9    10 ar  
    24     9    14 ar  
    25     9    22 1   
    26    10    11 ar  
    27    10    34 1   
    28    11    12 ar  
    29    11    35 1   
    30    12    13 ar  
    31    12    36 1   
    32    13    14 ar  
    33    13    37 1   
    34    14    38 1   
    35    15    16 2   
    36    15    22 1   
    37    15    39 1   
    38    16    18 1   
    39    17    23 1   
    40    17    40 1   
    41    18    26 2   
    42    19    25 1   
    43    19    27 1   
    44    20    41 1   
    45    21    42 1   
    46    22    26 1   
    47    25    43 1   
@<TRIPOS>SUBSTRUCTURE
     1 EW2         1 TEMP              0 ****  ****    0 ROOT
