@<TRIPOS>MOLECULE
EW4
   76    81     1     0     0
SMALL
No Charge or Current Charge


@<TRIPOS>ATOM
      1 C4          -0.3670    -1.4600     1.3420 cc         1 EW4      -0.234600
      2 C5           0.6850    -2.0230     0.6620 cd         1 EW4      -0.119000
      3 C6           3.1690    -2.3350     1.1340 c3         1 EW4       0.068600
      4 N1           1.8130    -1.8780     1.4780 na         1 EW4       0.033000
      5 C7           3.9150    -1.4490     0.0930 c6         1 EW4      -0.083700
      6 C8           5.2860    -2.0580    -0.2880 c6         1 EW4      -0.073400
      7 N2           6.2380     0.2280    -0.7800 n3         1 EW4      -0.712600
      8 C9           6.0420    -1.1600    -1.2980 c6         1 EW4       0.165800
      9 C10          7.0690     1.0840    -1.6800 c3         1 EW4       0.224700
     10 C11          7.1830     2.5090    -1.1640 c2         1 EW4      -0.235200
     11 C12          7.8760     2.9260    -0.0910 c2         1 EW4      -0.185200
     12 N3          -5.8050    -0.5560     0.6920 na         1 EW4      -0.170600
     13 C13          8.6940     2.0480     0.8320 c3         1 EW4      -0.042200
     14 C14          9.8300     1.2970     0.1050 c3         1 EW4      -0.062400
     15 C15          9.3620     0.1260    -0.7920 c3         1 EW4      -0.065400
     16 N4          -7.5850    -1.5830    -0.3870 nc         1 EW4      -0.554100
     17 O           -2.0130    -1.8750    -0.2760 o          1 EW4      -0.620100
     18 C3          -1.7660    -1.3940     0.8300 c          1 EW4       0.665700
     19 N           -2.5830    -0.7370     1.8070 nj         1 EW4      -0.424800
     20 C2          -3.7700    -1.6510     1.8540 cy         1 EW4       0.104500
     21 C21         -3.3560     0.2170     0.9470 cy         1 EW4       0.104500
     22 C1          -4.6640    -0.3820     1.5850 cy         1 EW4       0.054000
     23 C24         -6.3940     0.3410    -0.1600 ca         1 EW4      -0.010200
     24 C25         -6.0800     1.6810    -0.4250 ca         1 EW4      -0.227000
     25 C26         -6.8730     2.3630    -1.3740 ca         1 EW4       0.420300
     26 C27         -6.5990     3.8140    -1.7180 c3         1 EW4      -0.143400
     27 N5          -7.9150     1.7840    -2.0240 nb         1 EW4      -0.788000
     28 C28         -8.1780     0.5120    -1.7240 ca         1 EW4       0.674900
     29 N6          -9.2190     0.0540    -2.4300 nv         1 EW4      -1.046900
     30 C23         -7.4370    -0.2580    -0.7950 ca         1 EW4      -0.056600
     31 C22         -6.5870    -1.7180     0.5130 cd         1 EW4       0.398700
     32 C           -5.1600     0.3390     2.8580 c3         1 EW4      -0.097100
     33 C20          0.1200    -0.9700     2.5770 cc         1 EW4      -0.150000
     34 C19          1.4600    -1.2260     2.6650 cd         1 EW4      -0.204000
     35 C18          4.1300     0.0020     0.5950 c6         1 EW4      -0.073400
     36 C17          4.9190     0.8450    -0.4360 c6         1 EW4       0.165800
     37 C16          8.4840     0.5230    -2.0080 c3         1 EW4      -0.064400
     38 H1           0.7210    -2.5000    -0.3110 h4         1 EW4       0.164000
     39 H2           3.7650    -2.3850     2.0530 h1         1 EW4       0.062700
     40 H3           3.0900    -3.3550     0.7360 h1         1 EW4       0.062700
     41 H4           3.2840    -1.4200    -0.8070 hc         1 EW4       0.059700
     42 H5           5.9030    -2.1890     0.6120 hc         1 EW4       0.049200
     43 H6           5.1480    -3.0580    -0.7210 hc         1 EW4       0.049200
     44 H8           7.0070    -1.6440    -1.5050 h1         1 EW4       0.034700
     45 H9           5.4840    -1.1360    -2.2460 h1         1 EW4       0.034700
     46 H10          6.5450     1.1510    -2.6440 h1         1 EW4       0.018700
     47 H11          6.6270     3.2310    -1.7620 ha         1 EW4       0.167000
     48 H12          7.8780     3.9840     0.1770 ha         1 EW4       0.164000
     49 H13          9.1390     2.6690     1.6190 hc         1 EW4       0.049200
     50 H14          8.0460     1.3260     1.3440 hc         1 EW4       0.049200
     51 H15         10.4150     2.0070    -0.4930 hc         1 EW4       0.035700
     52 H16         10.5130     0.8920     0.8620 hc         1 EW4       0.035700
     53 H17         10.2550    -0.3860    -1.1710 hc         1 EW4       0.039200
     54 H18          8.8310    -0.6100    -0.1760 hc         1 EW4       0.039200
     55 H19         -3.8500    -2.4260     1.0810 h1         1 EW4       0.066950
     56 H20         -3.9230    -2.1010     2.8410 h1         1 EW4       0.066950
     57 H21         -3.1760     1.2660     1.2050 h1         1 EW4       0.066950
     58 H22         -3.2990     0.0910    -0.1410 h1         1 EW4       0.066950
     59 H23         -5.2610     2.1850     0.0770 ha         1 EW4       0.127000
     60 H24         -6.6820     3.9900    -2.7970 hc         1 EW4       0.049033
     61 H25         -7.3110     4.4750    -1.2110 hc         1 EW4       0.049033
     62 H26         -5.5890     4.1120    -1.4130 hc         1 EW4       0.049033
     63 H27         -9.4340     0.5980    -3.2560 hn         1 EW4       0.482500
     64 H28         -9.2880    -0.9530    -2.5140 hn         1 EW4       0.482500
     65 H29         -6.3710    -2.6210     1.0710 h5         1 EW4       0.060800
     66 H30         -5.9370    -0.2440     3.3660 hc         1 EW4       0.054367
     67 H31         -4.3440     0.4980     3.5750 hc         1 EW4       0.054367
     68 H32         -5.5820     1.3230     2.6190 hc         1 EW4       0.054367
     69 H33         -0.4790    -0.4690     3.3340 ha         1 EW4       0.128000
     70 H34          2.1730    -1.0010     3.4500 h4         1 EW4       0.148000
     71 H35          3.1640     0.4870     0.7900 hc         1 EW4       0.049200
     72 H36          4.6740    -0.0060     1.5500 hc         1 EW4       0.049200
     73 H37          5.0520     1.8480    -0.0060 h1         1 EW4       0.034700
     74 H38          4.3090     0.9630    -1.3440 h1         1 EW4       0.034700
     75 H39          8.3780    -0.3520    -2.6600 hc         1 EW4       0.038200
     76 H40          9.0260     1.2640    -2.6080 hc         1 EW4       0.038200
@<TRIPOS>BOND
     1     1     2 2   
     2     1    18 1   
     3     1    33 1   
     4     2     4 1   
     5     2    38 1   
     6     3     4 1   
     7     3     5 1   
     8     3    39 1   
     9     3    40 1   
    10     4    34 1   
    11     5     6 1   
    12     5    35 1   
    13     5    41 1   
    14     6     8 1   
    15     6    42 1   
    16     6    43 1   
    17     7     8 1   
    18     7     9 1   
    19     7    36 1   
    20     8    44 1   
    21     8    45 1   
    22     9    10 1   
    23     9    37 1   
    24     9    46 1   
    25    10    11 2   
    26    10    47 1   
    27    11    13 1   
    28    11    48 1   
    29    12    22 1   
    30    12    23 1   
    31    12    31 1   
    32    13    14 1   
    33    13    49 1   
    34    13    50 1   
    35    14    15 1   
    36    14    51 1   
    37    14    52 1   
    38    15    37 1   
    39    15    53 1   
    40    15    54 1   
    41    16    30 1   
    42    16    31 2   
    43    17    18 2   
    44    18    19 1   
    45    19    20 1   
    46    19    21 1   
    47    20    22 1   
    48    20    55 1   
    49    20    56 1   
    50    21    22 1   
    51    21    57 1   
    52    21    58 1   
    53    22    32 1   
    54    23    24 ar  
    55    23    30 ar  
    56    24    25 ar  
    57    24    59 1   
    58    25    26 1   
    59    25    27 ar  
    60    26    60 1   
    61    26    61 1   
    62    26    62 1   
    63    27    28 ar  
    64    28    29 1   
    65    28    30 ar  
    66    29    63 1   
    67    29    64 1   
    68    31    65 1   
    69    32    66 1   
    70    32    67 1   
    71    32    68 1   
    72    33    34 2   
    73    33    69 1   
    74    34    70 1   
    75    35    36 1   
    76    35    71 1   
    77    35    72 1   
    78    36    73 1   
    79    36    74 1   
    80    37    75 1   
    81    37    76 1   
@<TRIPOS>SUBSTRUCTURE
     1 EW4         1 TEMP              0 ****  ****    0 ROOT
