@<TRIPOS>MOLECULE
EW4
   76    81     1     0     0
SMALL
abcg2


@<TRIPOS>ATOM
      1 C4          -0.3040    -0.7490    -0.6170 cc         1 EW4      -0.234600
      2 C5           0.8180    -1.0200    -1.3770 cd         1 EW4      -0.119000
      3 C6           3.0630    -2.0120    -1.0240 c3         1 EW4       0.068600
      4 N1           1.7300    -1.6320    -0.5950 na         1 EW4       0.033000
      5 C7           4.0350    -0.8390    -1.0800 c6         1 EW4      -0.083700
      6 C8           5.3770    -1.2950    -1.6370 c6         1 EW4      -0.073400
      7 N2           6.5870     0.3940    -0.3170 n3         1 EW4      -0.712600
      8 C9           6.3890    -0.1610    -1.6450 c6         1 EW4       0.165800
      9 C10          7.6280     1.4240    -0.3040 c3         1 EW4       0.224700
     10 C11          7.7680     2.0540     1.0640 c2         1 EW4      -0.235200
     11 C12          8.2020     1.4400     2.1600 c2         1 EW4      -0.185200
     12 N3          -5.3880     0.1160     1.0580 na         1 EW4      -0.170600
     13 C13          8.6400     0.0060     2.2480 c3         1 EW4      -0.042200
     14 C14          9.8200    -0.3240     1.3320 c3         1 EW4      -0.062400
     15 C15          9.4710    -0.4010    -0.1510 c3         1 EW4      -0.065400
     16 N4          -6.8030    -1.1440     2.2310 nc         1 EW4      -0.554100
     17 O           -1.5530     0.1410    -2.4070 o          1 EW4      -0.620100
     18 C3          -1.4850    -0.1100    -1.2040 c          1 EW4       0.665700
     19 N           -2.5090     0.2180    -0.4000 nj         1 EW4      -0.424800
     20 C2          -2.8680     0.0210     0.9920 cy         1 EW4       0.104500
     21 C21         -3.7960     0.7500    -0.7950 cy         1 EW4       0.104500
     22 C1          -4.1680     0.8120     0.7090 cy         1 EW4       0.054000
     23 C24         -6.6200     0.3220     0.5010 ca         1 EW4      -0.010200
     24 C25         -7.0790     1.1120    -0.5590 ca         1 EW4      -0.227000
     25 C26         -8.4330     1.0210    -0.8150 ca         1 EW4       0.420300
     26 C27         -9.0570     1.8170    -1.9210 c3         1 EW4      -0.143400
     27 N5          -9.2810     0.2400    -0.1170 nb         1 EW4      -0.788000
     28 C28         -8.8470    -0.4980     0.8910 ca         1 EW4       0.674900
     29 N6          -9.7390    -1.2300     1.6050 nv         1 EW4      -1.046900
     30 C23         -7.4820    -0.4800     1.2400 ca         1 EW4      -0.056600
     31 C22         -5.5710    -0.7570     2.0940 cd         1 EW4       0.398700
     32 C           -4.1580     2.2180     1.2790 c3         1 EW4      -0.097100
     33 C20         -0.0290    -1.2300     0.6970 cc         1 EW4      -0.150000
     34 C19          1.2300    -1.7640     0.6690 cd         1 EW4      -0.204000
     35 C18          4.2680    -0.1930     0.2790 c6         1 EW4      -0.073400
     36 C17          5.3240     0.8980     0.1960 c6         1 EW4       0.165800
     37 C16          8.9840     0.8930    -0.7960 c3         1 EW4      -0.064400
     38 H1           1.0130    -0.8190    -2.4180 h4         1 EW4       0.164000
     39 H2           3.4300    -2.7750    -0.3360 h1         1 EW4       0.062700
     40 H3           2.9830    -2.4790    -2.0080 h1         1 EW4       0.062700
     41 H4           3.6200    -0.0830    -1.7590 hc         1 EW4       0.059700
     42 H5           5.7660    -2.1170    -1.0260 hc         1 EW4       0.049200
     43 H6           5.2630    -1.6790    -2.6540 hc         1 EW4       0.049200
     44 H8           7.3320    -0.5500    -2.0290 h1         1 EW4       0.034700
     45 H9           6.0600     0.6210    -2.3560 h1         1 EW4       0.034700
     46 H10          7.3450     2.2360    -1.0000 h1         1 EW4       0.018700
     47 H11          7.4930     3.1010     1.1410 ha         1 EW4       0.167000
     48 H12          8.2540     2.0250     3.0740 ha         1 EW4       0.164000
     49 H13          8.9180    -0.2180     3.2800 hc         1 EW4       0.049200
     50 H14          7.8020    -0.6510     1.9990 hc         1 EW4       0.049200
     51 H15         10.6170     0.4100     1.4890 hc         1 EW4       0.035700
     52 H16         10.2320    -1.2910     1.6330 hc         1 EW4       0.035700
     53 H17         10.3600    -0.7330    -0.6960 hc         1 EW4       0.039200
     54 H18          8.7200    -1.1830    -0.2920 hc         1 EW4       0.039200
     55 H19         -3.0160    -1.0290     1.2550 h1         1 EW4       0.066950
     56 H20         -2.2010     0.4860     1.7200 h1         1 EW4       0.066950
     57 H21         -3.7610     1.7120    -1.3110 h1         1 EW4       0.066950
     58 H22         -4.3920     0.0480    -1.3830 h1         1 EW4       0.066950
     59 H23         -6.4380     1.7610    -1.1390 ha         1 EW4       0.127000
     60 H24         -9.5640     1.1630    -2.6320 hc         1 EW4       0.049033
     61 H25         -9.8080     2.5030    -1.5260 hc         1 EW4       0.049033
     62 H26         -8.3190     2.4030    -2.4670 hc         1 EW4       0.049033
     63 H27        -10.6360    -1.3970     1.1810 hn         1 EW4       0.482500
     64 H28         -9.3850    -1.9840     2.1700 hn         1 EW4       0.482500
     65 H29         -4.7490    -1.0730     2.7180 h5         1 EW4       0.060800
     66 H30         -4.2240     2.1940     2.3670 hc         1 EW4       0.054367
     67 H31         -3.2360     2.7290     1.0030 hc         1 EW4       0.054367
     68 H32         -4.9940     2.8010     0.8910 hc         1 EW4       0.054367
     69 H33         -0.6670    -1.2150     1.5640 ha         1 EW4       0.128000
     70 H34          1.8060    -2.2380     1.4480 h4         1 EW4       0.148000
     71 H35          3.3450     0.2390     0.6730 hc         1 EW4       0.049200
     72 H36          4.5960    -0.9580     0.9920 hc         1 EW4       0.049200
     73 H37          5.4810     1.3090     1.1930 h1         1 EW4       0.034700
     74 H38          4.9420     1.7260    -0.4320 h1         1 EW4       0.034700
     75 H39          8.9460     0.7480    -1.8780 hc         1 EW4       0.038200
     76 H40          9.7210     1.6850    -0.6380 hc         1 EW4       0.038200
@<TRIPOS>BOND
     1     1     2 2   
     2     1    18 1   
     3     1    33 1   
     4     2     4 1   
     5     2    38 1   
     6     3     4 1   
     7     3     5 1   
     8     3    39 1   
     9     3    40 1   
    10     4    34 1   
    11     5     6 1   
    12     5    35 1   
    13     5    41 1   
    14     6     8 1   
    15     6    42 1   
    16     6    43 1   
    17     7     8 1   
    18     7     9 1   
    19     7    36 1   
    20     8    44 1   
    21     8    45 1   
    22     9    10 1   
    23     9    37 1   
    24     9    46 1   
    25    10    11 2   
    26    10    47 1   
    27    11    13 1   
    28    11    48 1   
    29    12    22 1   
    30    12    23 1   
    31    12    31 1   
    32    13    14 1   
    33    13    49 1   
    34    13    50 1   
    35    14    15 1   
    36    14    51 1   
    37    14    52 1   
    38    15    37 1   
    39    15    53 1   
    40    15    54 1   
    41    16    30 1   
    42    16    31 2   
    43    17    18 2   
    44    18    19 1   
    45    19    20 1   
    46    19    21 1   
    47    20    22 1   
    48    20    55 1   
    49    20    56 1   
    50    21    22 1   
    51    21    57 1   
    52    21    58 1   
    53    22    32 1   
    54    23    24 ar  
    55    23    30 ar  
    56    24    25 ar  
    57    24    59 1   
    58    25    26 1   
    59    25    27 ar  
    60    26    60 1   
    61    26    61 1   
    62    26    62 1   
    63    27    28 ar  
    64    28    29 1   
    65    28    30 ar  
    66    29    63 1   
    67    29    64 1   
    68    31    65 1   
    69    32    66 1   
    70    32    67 1   
    71    32    68 1   
    72    33    34 2   
    73    33    69 1   
    74    34    70 1   
    75    35    36 1   
    76    35    71 1   
    77    35    72 1   
    78    36    73 1   
    79    36    74 1   
    80    37    75 1   
    81    37    76 1   
@<TRIPOS>SUBSTRUCTURE
     1 EW4         1 TEMP              0 ****  ****    0 ROOT
