@<TRIPOS>MOLECULE
EW5
   44    47     1     0     0
SMALL
abcg2


@<TRIPOS>ATOM
      1 C10         -4.1170    -0.8380     0.3190 ca         1 EW5      -0.151500
      2 C15          3.5550    -2.6860     0.8490 ca         1 EW5      -0.108000
      3 C17          3.8460    -5.0000     0.2410 ca         1 EW5      -0.106000
      4 C21          1.4360     0.6940    -0.0520 cc         1 EW5       0.353500
      5 C22          1.8080     2.1040     0.0970 ca         1 EW5      -0.079500
      6 C24          3.1030     3.8250     1.1390 ca         1 EW5       0.329400
      7 C26          1.7050     4.4040    -0.5500 ca         1 EW5       0.329400
      8 C02         -1.1290     0.7590    -0.5210 c          1 EW5       0.643700
      9 C04         -3.3210     0.6570    -1.5640 c3         1 EW5       0.152300
     10 C05         -4.2130     0.3550    -0.3880 ca         1 EW5      -0.056300
     11 C06         -5.1990     1.2510     0.0040 ca         1 EW5      -0.151500
     12 C07         -6.0320     0.9200     1.0630 ca         1 EW5       0.336400
     13 C09         -4.9960    -1.0740     1.3630 ca         1 EW5       0.336400
     14 C11          0.1910     0.1110    -0.3950 cc         1 EW5      -0.255600
     15 C12          0.4450    -1.2410    -0.4220 cd         1 EW5      -0.136000
     16 C14          2.4610    -2.6110    -0.0040 ca         1 EW5       0.007800
     17 C16          4.2460    -3.8820     0.9620 ca         1 EW5      -0.095500
     18 C18          2.7520    -4.9130    -0.6090 ca         1 EW5      -0.095500
     19 C19          2.0600    -3.7180    -0.7420 ca         1 EW5      -0.108000
     20 C23          2.7490     2.4890     1.0480 ca         1 EW5      -0.130500
     21 C27          1.2790     3.0970    -0.7230 ca         1 EW5      -0.130500
     22 N03         -1.9710     0.1820    -1.3970 ns         1 EW5      -0.512900
     23 N08         -5.9420    -0.2190     1.7380 nb         1 EW5      -0.663000
     24 N13          1.7470    -1.3980    -0.1180 na         1 EW5       0.245000
     25 N20          2.3560    -0.2360     0.1030 nd         1 EW5      -0.507800
     26 N25          2.5960     4.7750     0.3610 nb         1 EW5      -0.660000
     27 O01         -1.4360     1.7360     0.1460 o          1 EW5      -0.576100
     28 H101        -3.3700    -1.5810     0.0710 ha         1 EW5       0.119500
     29 H151         3.8600    -1.8220     1.4230 ha         1 EW5       0.131000
     30 H171         4.3860    -5.9320     0.3380 ha         1 EW5       0.121000
     31 H241         3.8310     4.1400     1.8790 h4         1 EW5       0.018100
     32 H261         1.3070     5.1860    -1.1870 h4         1 EW5       0.018100
     33 H041        -3.7270     0.1690    -2.4510 h1         1 EW5       0.058700
     34 H042        -3.3290     1.7300    -1.7660 h1         1 EW5       0.058700
     35 H061        -5.3180     2.2030    -0.4980 ha         1 EW5       0.119500
     36 H071        -6.8020     1.6140     1.3810 h4         1 EW5       0.017600
     37 H091        -4.9330    -2.0010     1.9220 h4         1 EW5       0.017600
     38 H121        -0.2140    -2.0800    -0.5780 h4         1 EW5       0.160000
     39 H161         5.0980    -3.9400     1.6260 ha         1 EW5       0.121500
     40 H181         2.4380    -5.7730    -1.1850 ha         1 EW5       0.121500
     41 H191         1.2270    -3.6540    -1.4310 ha         1 EW5       0.131000
     42 H231         3.1950     1.7650     1.7160 ha         1 EW5       0.127500
     43 H271         0.5680     2.8700    -1.5050 ha         1 EW5       0.127500
     44 H031        -1.6380    -0.5480    -2.0040 hn         1 EW5       0.317500
@<TRIPOS>BOND
     1     1    10 ar  
     2     1    13 ar  
     3     1    28 1   
     4     2    16 ar  
     5     2    17 ar  
     6     2    29 1   
     7     3    17 ar  
     8     3    18 ar  
     9     3    30 1   
    10     4     5 1   
    11     4    14 1   
    12     4    25 2   
    13     5    20 ar  
    14     5    21 ar  
    15     6    20 ar  
    16     6    26 ar  
    17     6    31 1   
    18     7    21 ar  
    19     7    26 ar  
    20     7    32 1   
    21     8    14 1   
    22     8    22 1   
    23     8    27 2   
    24     9    10 1   
    25     9    22 1   
    26     9    33 1   
    27     9    34 1   
    28    10    11 ar  
    29    11    12 ar  
    30    11    35 1   
    31    12    23 ar  
    32    12    36 1   
    33    13    23 ar  
    34    13    37 1   
    35    14    15 2   
    36    15    24 1   
    37    15    38 1   
    38    16    19 ar  
    39    16    24 1   
    40    17    39 1   
    41    18    19 ar  
    42    18    40 1   
    43    19    41 1   
    44    20    42 1   
    45    21    43 1   
    46    22    44 1   
    47    24    25 1   
@<TRIPOS>SUBSTRUCTURE
     1 EW5         1 TEMP              0 ****  ****    0 ROOT
