@<TRIPOS>MOLECULE
EW5
   44    47     1     0     0
SMALL
No Charge or Current Charge


@<TRIPOS>ATOM
      1 C10         -4.7720    -1.2130    -0.0690 ca         1 EW5      -0.151500
      2 C15          2.9220    -2.8970     1.2830 ca         1 EW5      -0.108000
      3 C17          3.5370    -5.0440     0.3110 ca         1 EW5      -0.106000
      4 C21          1.5230     0.8800    -0.0270 cc         1 EW5       0.353500
      5 C22          1.8410     2.3220     0.0140 ca         1 EW5      -0.079500
      6 C24          3.2030     4.1710     0.8500 ca         1 EW5       0.329400
      7 C26          1.6830     4.6070    -0.8330 ca         1 EW5       0.329400
      8 C02         -1.0080     0.8720    -0.6930 c          1 EW5       0.643700
      9 C04         -3.3300     0.3340    -1.4970 c3         1 EW5       0.152300
     10 C05         -4.2130     0.0590    -0.2880 ca         1 EW5      -0.056300
     11 C06         -4.4910     1.0640     0.6550 ca         1 EW5      -0.151500
     12 C07         -5.3060     0.7650     1.7620 ca         1 EW5       0.336400
     13 C09         -5.5760    -1.4270     1.0640 ca         1 EW5       0.336400
     14 C11          0.3170     0.2500    -0.4640 cc         1 EW5      -0.255600
     15 C12          0.5680    -1.0990    -0.5160 cd         1 EW5      -0.136000
     16 C14          2.4310    -2.4630     0.0350 ca         1 EW5       0.007800
     17 C16          3.4720    -4.1840     1.4210 ca         1 EW5      -0.095500
     18 C18          3.0530    -4.6160    -0.9380 ca         1 EW5      -0.095500
     19 C19          2.5020    -3.3300    -1.0760 ca         1 EW5      -0.108000
     20 C23          2.8610     2.8080     0.8640 ca         1 EW5      -0.130500
     21 C27          1.2820     3.2610    -0.8820 ca         1 EW5      -0.130500
     22 N03         -1.9310     0.0020    -1.2240 ns         1 EW5      -0.512900
     23 N08         -5.8450    -0.4580     1.9710 nb         1 EW5      -0.663000
     24 N13          1.8860    -1.1850    -0.0950 na         1 EW5       0.245000
     25 N20          2.4870     0.0080     0.2260 nd         1 EW5      -0.507800
     26 N25          2.6230     5.0680     0.0230 nb         1 EW5      -0.660000
     27 O01         -1.3040     2.0220    -0.4140 o          1 EW5      -0.576100
     28 H101        -4.5890    -2.0300    -0.7610 ha         1 EW5       0.119500
     29 H151         2.8750    -2.2360     2.1460 ha         1 EW5       0.131000
     30 H171         3.9630    -6.0390     0.4170 ha         1 EW5       0.121000
     31 H241         3.9720     4.5550     1.5200 h4         1 EW5       0.018100
     32 H261         1.2530     5.3370    -1.5180 h4         1 EW5       0.018100
     33 H041        -3.6740    -0.2680    -2.3470 h1         1 EW5       0.058700
     34 H042        -3.4100     1.3900    -1.7870 h1         1 EW5       0.058700
     35 H061        -4.0830     2.0640     0.5410 ha         1 EW5       0.119500
     36 H071        -5.5330     1.5290     2.5040 h4         1 EW5       0.017600
     37 H091        -6.0190    -2.4040     1.2530 h4         1 EW5       0.017600
     38 H121        -0.0460    -1.9620    -0.7470 h4         1 EW5       0.160000
     39 H161         3.8480    -4.5150     2.3870 ha         1 EW5       0.121500
     40 H181         3.1060    -5.2810    -1.7980 ha         1 EW5       0.121500
     41 H191         2.1350    -3.0040    -2.0470 ha         1 EW5       0.131000
     42 H231         3.3780     2.1440     1.5520 ha         1 EW5       0.127500
     43 H271         0.5760     2.9630    -1.6490 ha         1 EW5       0.127500
     44 H031        -1.6100    -0.9340    -1.4290 hn         1 EW5       0.317500
@<TRIPOS>BOND
     1     1    10 ar  
     2     1    13 ar  
     3     1    28 1   
     4     2    16 ar  
     5     2    17 ar  
     6     2    29 1   
     7     3    17 ar  
     8     3    18 ar  
     9     3    30 1   
    10     4     5 1   
    11     4    14 1   
    12     4    25 2   
    13     5    20 ar  
    14     5    21 ar  
    15     6    20 ar  
    16     6    26 ar  
    17     6    31 1   
    18     7    21 ar  
    19     7    26 ar  
    20     7    32 1   
    21     8    14 1   
    22     8    22 1   
    23     8    27 2   
    24     9    10 1   
    25     9    22 1   
    26     9    33 1   
    27     9    34 1   
    28    10    11 ar  
    29    11    12 ar  
    30    11    35 1   
    31    12    23 ar  
    32    12    36 1   
    33    13    23 ar  
    34    13    37 1   
    35    14    15 2   
    36    15    24 1   
    37    15    38 1   
    38    16    19 ar  
    39    16    24 1   
    40    17    39 1   
    41    18    19 ar  
    42    18    40 1   
    43    19    41 1   
    44    20    42 1   
    45    21    43 1   
    46    22    44 1   
    47    24    25 1   
@<TRIPOS>SUBSTRUCTURE
     1 EW5         1 TEMP              0 ****  ****    0 ROOT
