@<TRIPOS>MOLECULE
EW6
   16    15     1     0     0
SMALL
No Charge or Current Charge


@<TRIPOS>ATOM
      1 N          103.3210    54.9310   155.1330 n8         1 EW6      -0.877800
      2 CA        -103.4210    53.4610   155.4990 c3         1 EW6       0.033200
      3 C          103.0790    52.4370   154.3090 c          1 EW6       0.939600
      4 O         -102.0620    52.6260   153.6440 o          1 EW6      -0.834800
      5 CB         104.8710    53.1740   156.0200 c3         1 EW6       0.159400
      6 C4        -102.3930    53.2190   156.6420 c3         1 EW6      -0.097100
      7 OG         105.2560    54.0810   157.0730 oh         1 EW6      -0.624800
      8 H         -103.6570    55.4750   155.9340 hn         1 EW6       0.328300
      9 H2         102.3320    55.1820   155.0380 hn         1 EW6       0.328300
     10 HB2       -105.5760    53.2660   155.1820 h1         1 EW6       0.027700
     11 HB3        104.9280    52.1390   156.3830 h1         1 EW6       0.027700
     12 H7        -102.5730    53.8810   157.4970 hc         1 EW6       0.018367
     13 H8         102.4520    52.1830   156.9980 hc         1 EW6       0.018367
     14 H9        -101.3680    53.3930   156.2920 hc         1 EW6       0.018367
     15 HG         106.1780    53.8550   157.3200 ho         1 EW6       0.370000
     16 OXT       -103.8620    51.5320   154.0320 o          1 EW6      -0.834800
@<TRIPOS>BOND
     1     1     2 1   
     2     1     8 1   
     3     1     9 1   
     4     2     3 1   
     5     2     5 1   
     6     2     6 1   
     7     3     4 1   
     8     3    16 1   
     9     5     7 1   
    10     5    10 1   
    11     5    11 1   
    12     6    12 1   
    13     6    13 1   
    14     6    14 1   
    15     7    15 1   
@<TRIPOS>SUBSTRUCTURE
     1 EW6         1 TEMP              0 ****  ****    0 ROOT
