@<TRIPOS>MOLECULE
EW6
   16    15     1     0     0
SMALL
bcc


@<TRIPOS>ATOM
      1 N         -103.3590    54.8770   155.1350 n8         1 EW6      -0.877800
      2 CA        -103.4460    53.4820   155.5560 c3         1 EW6       0.033200
      3 C         -103.0600    52.5660   154.3590 c          1 EW6       0.939600
      4 O         -102.2380    53.0310   153.5450 o          1 EW6      -0.834800
      5 CB        -104.8790    53.1950   155.9880 c3         1 EW6       0.159400
      6 C4        -102.4690    53.1570   156.7000 c3         1 EW6      -0.097100
      7 OG        -105.2360    54.0740   157.0400 oh         1 EW6      -0.624800
      8 H         -103.3370    55.4790   155.9480 hn         1 EW6       0.328300
      9 H2        -102.4770    55.0010   154.6540 hn         1 EW6       0.328300
     10 HB2       -105.5450    53.3310   155.1240 h1         1 EW6       0.027700
     11 HB3       -104.9640    52.1510   156.3020 h1         1 EW6       0.027700
     12 H7        -102.6590    53.7830   157.5730 hc         1 EW6       0.018367
     13 H8        -102.5430    52.1130   157.0130 hc         1 EW6       0.018367
     14 H9        -101.4400    53.3370   156.3800 hc         1 EW6       0.018367
     15 HG        -106.1150    53.8330   157.3410 ho         1 EW6       0.370000
     16 OXT       -103.5610    51.4240   154.3380 o          1 EW6      -0.834800
@<TRIPOS>BOND
     1     1     2 1   
     2     1     8 1   
     3     1     9 1   
     4     2     3 1   
     5     2     5 1   
     6     2     6 1   
     7     3     4 1   
     8     3    16 1   
     9     5     7 1   
    10     5    10 1   
    11     5    11 1   
    12     6    12 1   
    13     6    13 1   
    14     6    14 1   
    15     7    15 1   
@<TRIPOS>SUBSTRUCTURE
     1 EW6         1 TEMP              0 ****  ****    0 ROOT
