@<TRIPOS>MOLECULE
EW8
   58    57     1     0     0
SMALL
abcg2


@<TRIPOS>ATOM
      1 C4           6.4470     0.5710     0.0010 c3         1 EW8      -0.079400
      2 C5           5.1790    -0.2740    -0.0110 c3         1 EW8      -0.075400
      3 C6           3.9000     0.5550    -0.0090 c3         1 EW8      -0.075400
      4 C7           2.6330    -0.2920    -0.0130 c3         1 EW8      -0.075400
      5 C8           1.3550     0.5370    -0.0090 c3         1 EW8      -0.074400
      6 C10         -1.1910     0.5160    -0.0030 c3         1 EW8      -0.074400
      7 C13         -5.0000    -0.3600     0.0110 c3         1 EW8      -0.074400
      8 C15         -7.5450    -0.3920     0.0230 c3         1 EW8      -0.074400
      9 C17        -10.0880    -0.4320     0.0330 c3         1 EW8      -0.076400
     10 O1          10.2860    -1.4140    -0.0140 o          1 EW8      -0.744000
     11 C1          10.3200    -0.1690     0.0320 c          1 EW8       0.717000
     12 O2          11.3500     0.5380     0.0820 o          1 EW8      -0.744000
     13 C2           8.9820     0.5920     0.0270 c3         1 EW8      -0.204400
     14 C3           7.7240    -0.2610     0.0030 c3         1 EW8      -0.054400
     15 C9           0.0880    -0.3110    -0.0090 c3         1 EW8      -0.075400
     16 C11         -2.4560    -0.3330    -0.0000 c3         1 EW8      -0.074400
     17 C12         -3.7370     0.4920     0.0080 c3         1 EW8      -0.074400
     18 C14         -6.2830     0.4630     0.0190 c3         1 EW8      -0.074400
     19 C16         -8.8290     0.4270     0.0300 c3         1 EW8      -0.074400
     20 C18        -11.3770     0.3810     0.0390 c3         1 EW8      -0.075400
     21 C19        -12.6240    -0.4930     0.0410 c3         1 EW8      -0.088100
     22 H1           6.4450     1.2380    -0.8680 hc         1 EW8       0.023700
     23 H2           6.4360     1.2250     0.8810 hc         1 EW8       0.023700
     24 H3           5.1870    -0.9270    -0.8910 hc         1 EW8       0.033700
     25 H4           5.1790    -0.9410     0.8590 hc         1 EW8       0.033700
     26 H5           3.8950     1.2100     0.8690 hc         1 EW8       0.031700
     27 H6           3.8960     1.2180    -0.8820 hc         1 EW8       0.031700
     28 H7           2.6380    -0.9480    -0.8910 hc         1 EW8       0.035700
     29 H8           2.6380    -0.9550     0.8590 hc         1 EW8       0.035700
     30 H9           1.3510     1.1940     0.8680 hc         1 EW8       0.034700
     31 H10          1.3480     1.1980    -0.8830 hc         1 EW8       0.034700
     32 H11         -1.1940     1.1730     0.8750 hc         1 EW8       0.035700
     33 H12         -1.2000     1.1780    -0.8760 hc         1 EW8       0.035700
     34 H13         -4.9970    -1.0170    -0.8660 hc         1 EW8       0.036700
     35 H14         -4.9890    -1.0220     0.8850 hc         1 EW8       0.036700
     36 H15         -7.5390    -1.0500    -0.8530 hc         1 EW8       0.036700
     37 H16         -7.5310    -1.0540     0.8970 hc         1 EW8       0.036700
     38 H17        -10.0800    -1.0910    -0.8430 hc         1 EW8       0.036700
     39 H18        -10.0740    -1.0940     0.9070 hc         1 EW8       0.036700
     40 H20          8.9620     1.2520     0.9030 hc         1 EW8       0.014200
     41 H21          8.9820     1.2720    -0.8350 hc         1 EW8       0.014200
     42 H22          7.7150    -0.9300     0.8680 hc         1 EW8       0.038200
     43 H23          7.7330    -0.9090    -0.8780 hc         1 EW8       0.038200
     44 H24          0.0910    -0.9680    -0.8860 hc         1 EW8       0.035700
     45 H25          0.0970    -0.9730     0.8650 hc         1 EW8       0.035700
     46 H26         -2.4540    -0.9900    -0.8780 hc         1 EW8       0.036700
     47 H27         -2.4460    -0.9960     0.8730 hc         1 EW8       0.036700
     48 H28         -3.7480     1.1540    -0.8650 hc         1 EW8       0.036700
     49 H29         -3.7400     1.1490     0.8850 hc         1 EW8       0.036700
     50 H30         -6.2880     1.1200     0.8970 hc         1 EW8       0.036700
     51 H31         -6.2960     1.1240    -0.8540 hc         1 EW8       0.036700
     52 H32         -8.8370     1.0840     0.9070 hc         1 EW8       0.036700
     53 H33         -8.8430     1.0880    -0.8440 hc         1 EW8       0.036700
     54 H34        -11.3860     1.0380     0.9140 hc         1 EW8       0.036200
     55 H35        -11.3920     1.0410    -0.8350 hc         1 EW8       0.036200
     56 H36        -12.6530    -1.1370    -0.8410 hc         1 EW8       0.030033
     57 H37        -12.6480    -1.1390     0.9200 hc         1 EW8       0.030033
     58 H38        -13.5360     0.1040     0.0440 hc         1 EW8       0.030033
@<TRIPOS>BOND
     1     1     2 1   
     2     1    14 1   
     3     1    22 1   
     4     1    23 1   
     5     2     3 1   
     6     2    24 1   
     7     2    25 1   
     8     3     4 1   
     9     3    26 1   
    10     3    27 1   
    11     4     5 1   
    12     4    28 1   
    13     4    29 1   
    14     5    15 1   
    15     5    30 1   
    16     5    31 1   
    17     6    15 1   
    18     6    16 1   
    19     6    32 1   
    20     6    33 1   
    21     7    17 1   
    22     7    18 1   
    23     7    34 1   
    24     7    35 1   
    25     8    18 1   
    26     8    19 1   
    27     8    36 1   
    28     8    37 1   
    29     9    19 1   
    30     9    20 1   
    31     9    38 1   
    32     9    39 1   
    33    10    11 1   
    34    11    12 1   
    35    11    13 1   
    36    13    14 1   
    37    13    40 1   
    38    13    41 1   
    39    14    42 1   
    40    14    43 1   
    41    15    44 1   
    42    15    45 1   
    43    16    17 1   
    44    16    46 1   
    45    16    47 1   
    46    17    48 1   
    47    17    49 1   
    48    18    50 1   
    49    18    51 1   
    50    19    52 1   
    51    19    53 1   
    52    20    21 1   
    53    20    54 1   
    54    20    55 1   
    55    21    56 1   
    56    21    57 1   
    57    21    58 1   
@<TRIPOS>SUBSTRUCTURE
     1 EW8         1 TEMP              0 ****  ****    0 ROOT
