@<TRIPOS>MOLECULE
EW8
   58    57     1     0     0
SMALL
No Charge or Current Charge


@<TRIPOS>ATOM
      1 C4           6.5450     0.6210    -0.0430 c3         1 EW8      -0.079400
      2 C5           5.2680    -0.2460     0.0230 c3         1 EW8      -0.075400
      3 C6           3.9680     0.5870    -0.0360 c3         1 EW8      -0.075400
      4 C7           2.6920    -0.2800     0.0300 c3         1 EW8      -0.075400
      5 C8           1.3920     0.5530    -0.0280 c3         1 EW8      -0.074400
      6 C10         -1.1840     0.5190    -0.0210 c3         1 EW8      -0.074400
      7 C13         -5.0370    -0.3820     0.0500 c3         1 EW8      -0.074400
      8 C15         -7.6130    -0.4160     0.0570 c3         1 EW8      -0.074400
      9 C17        -10.1890    -0.4500     0.0630 c3         1 EW8      -0.076400
     10 O1          10.8310    -0.6740    -1.0350 o          1 EW8      -0.744000
     11 C1          10.3780    -0.2410     0.0130 c          1 EW8       0.717000
     12 O2          10.8350    -0.5170     1.1120 o          1 EW8      -0.744000
     13 C2           9.1270     0.6550    -0.0500 c3         1 EW8      -0.204400
     14 C3           7.8450    -0.2110     0.0150 c3         1 EW8      -0.054400
     15 C9           0.1160    -0.3140     0.0370 c3         1 EW8      -0.075400
     16 C11         -2.4610    -0.3480     0.0440 c3         1 EW8      -0.074400
     17 C12         -3.7600     0.4850    -0.0140 c3         1 EW8      -0.074400
     18 C14         -6.3360     0.4510    -0.0080 c3         1 EW8      -0.074400
     19 C16         -8.9120     0.4170    -0.0010 c3         1 EW8      -0.074400
     20 C18        -11.4880     0.3820     0.0050 c3         1 EW8      -0.075400
     21 C19        -12.7620    -0.4820     0.0680 c3         1 EW8      -0.088100
     22 H1           6.5340     1.2080    -0.9700 hc         1 EW8       0.023700
     23 H2           6.5370     1.3360     0.7890 hc         1 EW8       0.023700
     24 H3           5.2750    -0.9610    -0.8090 hc         1 EW8       0.033700
     25 H4           5.2780    -0.8320     0.9500 hc         1 EW8       0.033700
     26 H5           3.9610     1.3020     0.7970 hc         1 EW8       0.031700
     27 H6           3.9580     1.1740    -0.9630 hc         1 EW8       0.031700
     28 H7           2.6990    -0.9950    -0.8030 hc         1 EW8       0.035700
     29 H8           2.7020    -0.8670     0.9570 hc         1 EW8       0.035700
     30 H9           1.3850     1.2680     0.8040 hc         1 EW8       0.034700
     31 H10          1.3820     1.1400    -0.9550 hc         1 EW8       0.034700
     32 H11         -1.1910     1.2340     0.8110 hc         1 EW8       0.035700
     33 H12         -1.1940     1.1060    -0.9480 hc         1 EW8       0.035700
     34 H13         -5.0290    -1.0960    -0.7830 hc         1 EW8       0.036700
     35 H14         -5.0260    -0.9690     0.9770 hc         1 EW8       0.036700
     36 H15         -7.6050    -1.1300    -0.7760 hc         1 EW8       0.036700
     37 H16         -7.6030    -1.0040     0.9830 hc         1 EW8       0.036700
     38 H17        -10.1810    -1.1640    -0.7700 hc         1 EW8       0.036700
     39 H18        -10.1790    -1.0380     0.9890 hc         1 EW8       0.036700
     40 H20          9.0860     1.3190     0.8220 hc         1 EW8       0.014200
     41 H21          9.0820     1.1850    -1.0100 hc         1 EW8       0.014200
     42 H22          7.8550    -0.7990     0.9420 hc         1 EW8       0.038200
     43 H23          7.8510    -0.9280    -0.8160 hc         1 EW8       0.038200
     44 H24          0.1230    -1.0280    -0.7960 hc         1 EW8       0.035700
     45 H25          0.1260    -0.9010     0.9640 hc         1 EW8       0.035700
     46 H26         -2.4530    -1.0620    -0.7890 hc         1 EW8       0.036700
     47 H27         -2.4500    -0.9350     0.9700 hc         1 EW8       0.036700
     48 H28         -3.7700     1.0720    -0.9410 hc         1 EW8       0.036700
     49 H29         -3.7670     1.1990     0.8180 hc         1 EW8       0.036700
     50 H30         -6.3430     1.1650     0.8250 hc         1 EW8       0.036700
     51 H31         -6.3460     1.0390    -0.9340 hc         1 EW8       0.036700
     52 H32         -8.9190     1.1310     0.8320 hc         1 EW8       0.036700
     53 H33         -8.9220     1.0050    -0.9280 hc         1 EW8       0.036700
     54 H34        -11.5000     1.0960     0.8380 hc         1 EW8       0.036200
     55 H35        -11.5030     0.9710    -0.9210 hc         1 EW8       0.036200
     56 H36        -12.7970    -1.1840    -0.7730 hc         1 EW8       0.030033
     57 H37        -12.7950    -1.0570     1.0020 hc         1 EW8       0.030033
     58 H38        -13.6560     0.1510     0.0240 hc         1 EW8       0.030033
@<TRIPOS>BOND
     1     1     2 1   
     2     1    14 1   
     3     1    22 1   
     4     1    23 1   
     5     2     3 1   
     6     2    24 1   
     7     2    25 1   
     8     3     4 1   
     9     3    26 1   
    10     3    27 1   
    11     4     5 1   
    12     4    28 1   
    13     4    29 1   
    14     5    15 1   
    15     5    30 1   
    16     5    31 1   
    17     6    15 1   
    18     6    16 1   
    19     6    32 1   
    20     6    33 1   
    21     7    17 1   
    22     7    18 1   
    23     7    34 1   
    24     7    35 1   
    25     8    18 1   
    26     8    19 1   
    27     8    36 1   
    28     8    37 1   
    29     9    19 1   
    30     9    20 1   
    31     9    38 1   
    32     9    39 1   
    33    10    11 1   
    34    11    12 1   
    35    11    13 1   
    36    13    14 1   
    37    13    40 1   
    38    13    41 1   
    39    14    42 1   
    40    14    43 1   
    41    15    44 1   
    42    15    45 1   
    43    16    17 1   
    44    16    46 1   
    45    16    47 1   
    46    17    48 1   
    47    17    49 1   
    48    18    50 1   
    49    18    51 1   
    50    19    52 1   
    51    19    53 1   
    52    20    21 1   
    53    20    54 1   
    54    20    55 1   
    55    21    56 1   
    56    21    57 1   
    57    21    58 1   
@<TRIPOS>SUBSTRUCTURE
     1 EW8         1 TEMP              0 ****  ****    0 ROOT
