@<TRIPOS>MOLECULE
EWD
   32    34     1     0     0
SMALL
No Charge or Current Charge


@<TRIPOS>ATOM
      1 C14          2.0460     0.4680    -0.0300 ca         1 EWD      -0.067000
      2 C15          1.1170     1.4790    -0.3590 ca         1 EWD      -0.094000
      3 C16         -0.2230     1.1560    -0.6270 ca         1 EWD      -0.226000
      4 C17         -0.6640    -0.1780    -0.5580 ca         1 EWD       0.157100
      5 C18          0.2490    -1.2010    -0.2370 ca         1 EWD      -0.153600
      6 C19          1.5970    -0.8690     0.0210 ca         1 EWD      -0.053000
      7 C20          3.4560     0.7750     0.2520 cc         1 EWD      -0.098000
      8 C21          3.9680     2.0400     0.2240 cd         1 EWD      -0.198000
      9 N22          5.3240     1.8820     0.5470 na         1 EWD      -0.019200
     10 N23          5.6690     0.5490     0.7750 nd         1 EWD      -0.548800
     11 C24          4.5230    -0.0780     0.5880 cc         1 EWD       0.249900
     12 C25         -0.1870    -2.6370    -0.1700 c          1 EWD       0.718600
     13 O26         -1.1280    -2.9290     0.5550 o          1 EWD      -0.710000
     14 O27          0.4810    -3.4640    -0.7750 o          1 EWD      -0.710000
     15 O28         -1.9710    -0.4880    -0.8650 os         1 EWD      -0.203200
     16 C29         -3.0410     0.2570    -0.4210 ca         1 EWD       0.130100
     17 C30         -4.1710     0.3820    -1.2470 ca         1 EWD      -0.122000
     18 C31         -5.2840     1.1260    -0.8140 ca         1 EWD      -0.112000
     19 C32         -5.2700     1.7380     0.4510 ca         1 EWD      -0.135000
     20 C33         -4.1470     1.6050     1.2850 ca         1 EWD      -0.112000
     21 C34         -3.0340     0.8620     0.8530 ca         1 EWD      -0.122000
     22 H1           1.4210     2.5200    -0.4180 ha         1 EWD       0.082000
     23 H2          -0.9180     1.9470    -0.8970 ha         1 EWD       0.101000
     24 H3           2.2930    -1.6670     0.2690 ha         1 EWD       0.139000
     25 H4           3.5200     3.0050     0.0150 h4         1 EWD       0.144000
     26 H5           6.0150     2.6300     0.6180 hn         1 EWD       0.354000
     27 H6           4.4970    -1.1540     0.7040 h4         1 EWD       0.048100
     28 H8          -4.1810    -0.0940    -2.2240 ha         1 EWD       0.131000
     29 H9          -6.1550     1.2250    -1.4580 ha         1 EWD       0.101000
     30 H10         -6.1310     2.3120     0.7860 ha         1 EWD       0.098000
     31 H11         -4.1400     2.0740     2.2670 ha         1 EWD       0.101000
     32 H12         -2.1730     0.7530     1.5080 ha         1 EWD       0.131000
@<TRIPOS>BOND
     1     1     2 ar  
     2     1     6 ar  
     3     1     7 1   
     4     2     3 ar  
     5     2    22 1   
     6     3     4 ar  
     7     3    23 1   
     8     4     5 ar  
     9     4    15 1   
    10     5     6 ar  
    11     5    12 1   
    12     6    24 1   
    13     7     8 2   
    14     7    11 1   
    15     8     9 1   
    16     8    25 1   
    17     9    10 1   
    18     9    26 1   
    19    10    11 2   
    20    11    27 1   
    21    12    13 1   
    22    12    14 1   
    23    15    16 1   
    24    16    17 ar  
    25    16    21 ar  
    26    17    18 ar  
    27    17    28 1   
    28    18    19 ar  
    29    18    29 1   
    30    19    20 ar  
    31    19    30 1   
    32    20    21 ar  
    33    20    31 1   
    34    21    32 1   
@<TRIPOS>SUBSTRUCTURE
     1 EWD         1 TEMP              0 ****  ****    0 ROOT
