@<TRIPOS>MOLECULE
EWD
   32    34     1     0     0
SMALL
abcg2


@<TRIPOS>ATOM
      1 C14          1.9540     0.4350     0.0070 ca         1 EWD      -0.067000
      2 C15          0.9310     1.3790     0.0100 ca         1 EWD      -0.094000
      3 C16         -0.3970     0.9910     0.0140 ca         1 EWD      -0.226000
      4 C17         -0.7440    -0.3590     0.0150 ca         1 EWD       0.157100
      5 C18          0.2590    -1.3420     0.0060 ca         1 EWD      -0.153600
      6 C19          1.5810    -0.9060     0.0030 ca         1 EWD      -0.053000
      7 C20          3.3630     0.8270     0.0110 cc         1 EWD      -0.098000
      8 C21          3.9010     2.0940     0.1390 cd         1 EWD      -0.198000
      9 N22          5.2340     1.9530     0.0910 na         1 EWD      -0.019200
     10 N23          5.6220     0.6940    -0.0550 nd         1 EWD      -0.548800
     11 C24          4.5020    -0.0010    -0.1050 cc         1 EWD       0.249900
     12 C25          0.0060    -2.8550    -0.0000 c          1 EWD       0.718600
     13 O26         -1.1710    -3.2510     0.0390 o          1 EWD      -0.710000
     14 O27          1.0250    -3.5720    -0.0450 o          1 EWD      -0.710000
     15 O28         -2.0460    -0.7510     0.0190 os         1 EWD      -0.203200
     16 C29         -3.0420     0.1890     0.0210 ca         1 EWD       0.130100
     17 C30         -3.5900     0.6040    -1.1840 ca         1 EWD      -0.122000
     18 C31         -4.6500     1.5010    -1.1770 ca         1 EWD      -0.112000
     19 C32         -5.1530     1.9840     0.0240 ca         1 EWD      -0.135000
     20 C33         -4.5940     1.5630     1.2240 ca         1 EWD      -0.112000
     21 C34         -3.5350     0.6650     1.2280 ca         1 EWD      -0.122000
     22 H1           1.1550     2.4390     0.0050 ha         1 EWD       0.082000
     23 H2          -1.1600     1.7570     0.0140 ha         1 EWD       0.101000
     24 H3           2.3440    -1.6730     0.0010 ha         1 EWD       0.139000
     25 H4           3.4440     3.0620     0.2620 h4         1 EWD       0.144000
     26 H5           5.9210     2.6860     0.1630 hn         1 EWD       0.354000
     27 H6           4.5390    -1.0730    -0.2290 h4         1 EWD       0.048100
     28 H8          -3.1960     0.2240    -2.1180 ha         1 EWD       0.131000
     29 H9          -5.0840     1.8190    -2.1160 ha         1 EWD       0.101000
     30 H10         -5.9800     2.6820     0.0250 ha         1 EWD       0.098000
     31 H11         -4.9830     1.9310     2.1640 ha         1 EWD       0.101000
     32 H12         -3.0990     0.3310     2.1620 ha         1 EWD       0.131000
@<TRIPOS>BOND
     1     1     2 ar  
     2     1     6 ar  
     3     1     7 1   
     4     2     3 ar  
     5     2    22 1   
     6     3     4 ar  
     7     3    23 1   
     8     4     5 ar  
     9     4    15 1   
    10     5     6 ar  
    11     5    12 1   
    12     6    24 1   
    13     7     8 2   
    14     7    11 1   
    15     8     9 1   
    16     8    25 1   
    17     9    10 1   
    18     9    26 1   
    19    10    11 2   
    20    11    27 1   
    21    12    13 1   
    22    12    14 1   
    23    15    16 1   
    24    16    17 ar  
    25    16    21 ar  
    26    17    18 ar  
    27    17    28 1   
    28    18    19 ar  
    29    18    29 1   
    30    19    20 ar  
    31    19    30 1   
    32    20    21 ar  
    33    20    31 1   
    34    21    32 1   
@<TRIPOS>SUBSTRUCTURE
     1 EWD         1 TEMP              0 ****  ****    0 ROOT
