@<TRIPOS>MOLECULE
EWF
   23    24     1     0     0
SMALL
No Charge or Current Charge


@<TRIPOS>ATOM
      1 C1          -6.6650     3.8280    17.3490 c5         1 EWF      -0.042100
      2 C3          -5.7300     2.9040    15.3300 ca         1 EWF       0.248000
      3 C5          -5.2710     4.1110    13.2820 ca         1 EWF      -0.095000
      4 C7          -6.2130     5.2740    15.2170 ca         1 EWF      -0.081000
      5 O1          -5.0100    -0.2850    17.4030 o          1 EWF      -0.550500
      6 O           -3.6010     0.7490    15.5200 o          1 EWF      -0.550500
      7 N           -5.8290    -0.2740    15.0930 n8         1 EWF      -1.027100
      8 N1          -5.8370     1.8630    16.2430 nh         1 EWF      -0.783300
      9 C4          -5.2640     2.9000    14.0040 ca         1 EWF      -0.093000
     10 C6          -5.7440     5.2950    13.8890 ca         1 EWF      -0.116000
     11 C2          -6.1980     4.0590    15.9220 ca         1 EWF      -0.112300
     12 C           -6.3060     2.3030    17.5870 c5         1 EWF       0.190800
     13 H1          -6.1520     4.4780    18.0670 hc         1 EWF       0.068200
     14 H2          -7.7410     4.0030    17.4560 hc         1 EWF       0.068200
     15 H3          -4.9140     4.1320    12.2540 ha         1 EWF       0.120000
     16 H4          -6.5820     6.1820    15.6880 ha         1 EWF       0.117000
     17 H5          -6.1750    -1.0270    15.6790 hn         1 EWF       0.485000
     18 H6          -6.5700     0.4230    15.1340 hn         1 EWF       0.485000
     19 H7          -4.9090     1.9870    13.5350 ha         1 EWF       0.149000
     20 H8          -5.7480     6.2270    13.3280 ha         1 EWF       0.117000
     21 H9          -7.1840     1.7330    17.9200 h1         1 EWF       0.055200
     22 H10         -5.5180     2.2040    18.3460 h1         1 EWF       0.055200
     23 S           -4.8820     0.4590    16.1560 s6         1 EWF       1.290200
@<TRIPOS>BOND
     1     1    11 1   
     2     1    12 1   
     3     1    13 1   
     4     1    14 1   
     5     2     8 1   
     6     2     9 ar  
     7     2    11 ar  
     8     3     9 ar  
     9     3    10 ar  
    10     3    15 1   
    11     4    10 ar  
    12     4    11 ar  
    13     4    16 1   
    14     5    23 2   
    15     6    23 2   
    16     7    17 1   
    17     7    18 1   
    18     7    23 1   
    19     8    12 1   
    20     8    23 1   
    21     9    19 1   
    22    10    20 1   
    23    12    21 1   
    24    12    22 1   
@<TRIPOS>SUBSTRUCTURE
     1 EWF         1 TEMP              0 ****  ****    0 ROOT
