@<TRIPOS>MOLECULE
EWF
   23    24     1     0     0
SMALL
abcg2


@<TRIPOS>ATOM
      1 C1          -6.5850     3.6330    17.2570 c5         1 EWF      -0.042100
      2 C3          -5.8130     2.9840    15.1020 ca         1 EWF       0.248000
      3 C5          -5.1880     4.4240    13.3070 ca         1 EWF      -0.095000
      4 C7          -5.9620     5.3690    15.3950 ca         1 EWF      -0.081000
      5 O1          -4.0210     0.9380    17.0640 o          1 EWF      -0.550500
      6 O           -4.3390     0.4360    14.6570 o          1 EWF      -0.550500
      7 N           -5.6800    -0.7440    16.3870 n8         1 EWF      -1.027100
      8 N1          -6.1030     1.7640    15.7970 nh         1 EWF      -0.783300
      9 C4          -5.3530     3.1300    13.8010 ca         1 EWF      -0.093000
     10 C6          -5.4890     5.5350    14.0920 ca         1 EWF      -0.116000
     11 C2          -6.1200     4.0880    15.8980 ca         1 EWF      -0.112300
     12 C           -6.8570     2.1350    17.0390 c5         1 EWF       0.190800
     13 H1          -5.8020     3.7940    18.0030 hc         1 EWF       0.068200
     14 H2          -7.4790     4.1550    17.5960 hc         1 EWF       0.068200
     15 H3          -4.8310     4.5610    12.2950 ha         1 EWF       0.120000
     16 H4          -6.2010     6.2310    16.0060 ha         1 EWF       0.117000
     17 H5          -5.9270    -0.8000    17.3690 hn         1 EWF       0.485000
     18 H6          -6.4410    -0.9990    15.7670 hn         1 EWF       0.485000
     19 H7          -5.1300     2.2680    13.1900 ha         1 EWF       0.149000
     20 H8          -5.3620     6.5300    13.6870 ha         1 EWF       0.117000
     21 H9          -7.9130     1.9480    16.8450 h1         1 EWF       0.055200
     22 H10         -6.5450     1.5240    17.8810 h1         1 EWF       0.055200
     23 S           -4.9030     0.6210    15.9660 s6         1 EWF       1.290200
@<TRIPOS>BOND
     1     1    11 1   
     2     1    12 1   
     3     1    13 1   
     4     1    14 1   
     5     2     8 1   
     6     2     9 ar  
     7     2    11 ar  
     8     3     9 ar  
     9     3    10 ar  
    10     3    15 1   
    11     4    10 ar  
    12     4    11 ar  
    13     4    16 1   
    14     5    23 2   
    15     6    23 2   
    16     7    17 1   
    17     7    18 1   
    18     7    23 1   
    19     8    12 1   
    20     8    23 1   
    21     9    19 1   
    22    10    20 1   
    23    12    21 1   
    24    12    22 1   
@<TRIPOS>SUBSTRUCTURE
     1 EWF         1 TEMP              0 ****  ****    0 ROOT
