@<TRIPOS>MOLECULE
EWG
   21    22     1     0     0
SMALL
No Charge or Current Charge


@<TRIPOS>ATOM
      1 C2          -1.9680     0.0250    -0.0130 cc         1 EWG      -0.104000
      2 C3          -3.0880    -0.7550    -0.0060 cd         1 EWG      -0.194000
      3 C6          -2.4110     1.3600    -0.0420 cc         1 EWG       0.250900
      4 N4          -4.1550     0.1560    -0.0310 na         1 EWG      -0.020200
      5 N5          -3.7250     1.4840    -0.0540 nd         1 EWG      -0.550800
      6 C13         -0.6020    -0.5230     0.0070 ca         1 EWG      -0.044000
      7 C14          0.5040     0.3560    -0.0020 ca         1 EWG      -0.072000
      8 C15          1.8340    -0.1290     0.0160 ca         1 EWG      -0.137600
      9 C16          2.0420    -1.5260     0.0450 ca         1 EWG      -0.081000
     10 C17          0.9510    -2.4080     0.0540 ca         1 EWG      -0.149000
     11 C18         -0.3610    -1.9130     0.0360 ca         1 EWG      -0.130000
     12 C19          3.0130     0.8320     0.0060 c          1 EWG       0.712600
     13 O20          2.7890     2.0340    -0.0190 o          1 EWG      -0.721000
     14 O21          4.1450     0.3710     0.0220 o          1 EWG      -0.721000
     15 H1          -3.2300    -1.8290     0.0140 h4         1 EWG       0.144000
     16 H2          -1.8060     2.2570    -0.0550 h4         1 EWG       0.046100
     17 H3          -5.1470    -0.0810    -0.0330 hn         1 EWG       0.354000
     18 H4           0.3320     1.4280    -0.0240 ha         1 EWG       0.128000
     19 H5           3.0510    -1.9340     0.0600 ha         1 EWG       0.127000
     20 H6           1.1240    -3.4820     0.0760 ha         1 EWG       0.084000
     21 H7          -1.1820    -2.6230     0.0440 ha         1 EWG       0.077000
@<TRIPOS>BOND
     1     1     2 2   
     2     1     3 1   
     3     1     6 1   
     4     2     4 1   
     5     2    15 1   
     6     3     5 2   
     7     3    16 1   
     8     4     5 1   
     9     4    17 1   
    10     6     7 ar  
    11     6    11 ar  
    12     7     8 ar  
    13     7    18 1   
    14     8     9 ar  
    15     8    12 1   
    16     9    10 ar  
    17     9    19 1   
    18    10    11 ar  
    19    10    20 1   
    20    11    21 1   
    21    12    13 1   
    22    12    14 1   
@<TRIPOS>SUBSTRUCTURE
     1 EWG         1 TEMP              0 ****  ****    0 ROOT
