@<TRIPOS>MOLECULE
EWG
   21    22     1     0     0
SMALL
abcg2


@<TRIPOS>ATOM
      1 C2          -1.9510    -0.0210    -0.0290 cc         1 EWG      -0.104000
      2 C3          -3.1320    -0.7170     0.1500 cd         1 EWG      -0.194000
      3 C6          -2.3820     1.3100    -0.2300 cc         1 EWG       0.250900
      4 N4          -4.1250     0.1780     0.0530 na         1 EWG      -0.020200
      5 N5          -3.6960     1.4130    -0.1790 nd         1 EWG      -0.550800
      6 C13         -0.5840    -0.5390    -0.0150 ca         1 EWG      -0.044000
      7 C14          0.5070     0.3290     0.0390 ca         1 EWG      -0.072000
      8 C15          1.8170    -0.1370     0.0500 ca         1 EWG      -0.137600
      9 C16          2.0410    -1.5110     0.0100 ca         1 EWG      -0.081000
     10 C17          0.9680    -2.3910    -0.0420 ca         1 EWG      -0.149000
     11 C18         -0.3330    -1.9130    -0.0590 ca         1 EWG      -0.130000
     12 C19          2.9850     0.8420     0.1110 c          1 EWG       0.712600
     13 O20          2.6990     2.0540     0.1450 o          1 EWG      -0.721000
     14 O21          4.1280     0.3450     0.1200 o          1 EWG      -0.721000
     15 H1          -3.3300    -1.7580     0.3460 h4         1 EWG       0.144000
     16 H2          -1.7790     2.1860    -0.4170 h4         1 EWG       0.046100
     17 H3          -5.1120    -0.0040     0.1340 hn         1 EWG       0.354000
     18 H4           0.3440     1.3990     0.0820 ha         1 EWG       0.128000
     19 H5           3.0540    -1.8890     0.0190 ha         1 EWG       0.127000
     20 H6           1.1440    -3.4590    -0.0760 ha         1 EWG       0.084000
     21 H7          -1.1550    -2.6160    -0.1120 ha         1 EWG       0.077000
@<TRIPOS>BOND
     1     1     2 2   
     2     1     3 1   
     3     1     6 1   
     4     2     4 1   
     5     2    15 1   
     6     3     5 2   
     7     3    16 1   
     8     4     5 1   
     9     4    17 1   
    10     6     7 ar  
    11     6    11 ar  
    12     7     8 ar  
    13     7    18 1   
    14     8     9 ar  
    15     8    12 1   
    16     9    10 ar  
    17     9    19 1   
    18    10    11 ar  
    19    10    20 1   
    20    11    21 1   
    21    12    13 1   
    22    12    14 1   
@<TRIPOS>SUBSTRUCTURE
     1 EWG         1 TEMP              0 ****  ****    0 ROOT
