@<TRIPOS>MOLECULE
EWH
   59    62     1     0     0
SMALL
abcg2


@<TRIPOS>ATOM
      1 N1          -6.3470     0.0230    -0.5640 nh         1 EWH      -0.776400
      2 C2          -7.1140    -0.5570     0.5340 c6         1 EWH       0.157800
      3 N3           1.4300     0.0410     0.5430 nb         1 EWH      -0.320000
      4 C4          -4.2330    -0.9890     0.0740 ca         1 EWH      -0.133000
      5 C5          -2.8620    -0.9510     0.2560 ca         1 EWH      -0.120000
      6 C6          -2.1430     0.2140    -0.0220 ca         1 EWH       0.280000
      7 C18          2.2100    -2.0790     1.2380 ca         1 EWH      -0.131000
      8 C8           2.4400    -0.7230     0.9110 ca         1 EWH       0.441900
      9 C9           4.0350     1.1430     0.7560 ca         1 EWH       0.252000
     10 C14          5.1200     1.4350    -0.0790 ca         1 EWH      -0.047000
     11 N5           5.7380     0.3760    -0.7590 ns         1 EWH      -0.161000
     12 C15          7.0720     0.2170    -0.9690 c          1 EWH       0.606300
     13 O            7.9130     1.0080    -0.5780 o          1 EWH      -0.581100
     14 C16          7.4030    -1.0200    -1.7190 ce         1 EWH      -0.307200
     15 C17          8.6570    -1.3290    -2.0270 c2         1 EWH      -0.224000
     16 C13          5.5300     2.7570    -0.2350 ca         1 EWH      -0.101000
     17 C12          4.8560     3.7760     0.4190 ca         1 EWH      -0.099000
     18 C11          3.7680     3.4870     1.2320 ca         1 EWH      -0.116000
     19 C10          3.3610     2.1750     1.4020 ca         1 EWH      -0.086000
     20 C19          0.9170    -2.5270     1.1670 ca         1 EWH       0.189900
     21 N6          -0.1020    -1.7520     0.8090 nb         1 EWH      -0.261000
     22 C7           0.2060    -0.4940     0.5090 ca         1 EWH       0.429900
     23 N2          -0.7640     0.3720     0.1270 nu         1 EWH      -0.918900
     24 C20         -2.8600     1.3190    -0.4810 ca         1 EWH      -0.120000
     25 C21         -4.2350     1.2780    -0.6450 ca         1 EWH      -0.133000
     26 C3          -4.9650     0.1160    -0.3750 ca         1 EWH       0.265000
     27 C1          -8.5260    -0.8990     0.0750 c6         1 EWH       0.158800
     28 C22         -7.0170     1.1630    -1.1630 c6         1 EWH       0.157800
     29 C23         -8.4360     0.7830    -1.5790 c6         1 EWH       0.158800
     30 N           -9.2390     0.2200    -0.5110 n3         1 EWH      -0.711600
     31 C           -9.6830     1.1990     0.4610 c3         1 EWH       0.150100
     32 H1          -6.6400    -1.4750     0.8780 h1         1 EWH       0.039950
     33 H2          -7.1400     0.1280     1.3950 h1         1 EWH       0.039950
     34 H3          -4.7360    -1.9250     0.2800 ha         1 EWH       0.114500
     35 H4           4.4350    -0.8330     1.2120 hn         1 EWH       0.517000
     36 H5          -2.3550    -1.8350     0.6040 ha         1 EWH       0.129500
     37 H6           5.1280    -0.3590    -1.0860 hn         1 EWH       0.158000
     38 H7           6.5890    -1.6740    -2.0150 ha         1 EWH       0.179000
     39 H8           9.4870    -0.6940    -1.7480 ha         1 EWH       0.178000
     40 H9           8.8910    -2.2320    -2.5740 ha         1 EWH       0.178000
     41 H10          6.3590     2.9940    -0.8840 ha         1 EWH       0.137000
     42 H11          5.1800     4.7990     0.2850 ha         1 EWH       0.118000
     43 H12          3.2410     4.2810     1.7440 ha         1 EWH       0.117000
     44 H13          2.5260     1.9470     2.0500 ha         1 EWH       0.129000
     45 H14          0.6870    -3.5590     1.4100 h4         1 EWH       0.033100
     46 H15         -0.4110     1.2920    -0.0920 hn         1 EWH       0.510000
     47 H16         -2.3370     2.2420    -0.7070 ha         1 EWH       0.129500
     48 H17         -4.7260     2.1800    -0.9850 ha         1 EWH       0.114500
     49 H18         -8.4640    -1.6960    -0.6730 h1         1 EWH       0.059950
     50 H19         -9.0960    -1.2920     0.9200 h1         1 EWH       0.059950
     51 H20         -7.0330     2.0330    -0.4870 h1         1 EWH       0.039950
     52 H21         -6.4750     1.4700    -2.0600 h1         1 EWH       0.039950
     53 H22         -8.9370     1.6640    -1.9870 h1         1 EWH       0.059950
     54 H23         -8.3730     0.0450    -2.3850 h1         1 EWH       0.059950
     55 H25         -8.8820     1.7120     1.0100 h1         1 EWH       0.030700
     56 H26        -10.2790     1.9640    -0.0390 h1         1 EWH       0.030700
     57 H27        -10.3250     0.7140     1.1990 h1         1 EWH       0.030700
     58 N4           3.6880    -0.2050     0.9530 nu         1 EWH      -0.951900
     59 CL           3.5030    -3.1260     1.7030 cl         1 EWH      -0.188000
@<TRIPOS>BOND
     1     1     2 1   
     2     1    26 1   
     3     1    28 1   
     4     2    27 1   
     5     2    32 1   
     6     2    33 1   
     7     3     8 ar  
     8     3    22 ar  
     9     4     5 ar  
    10     4    26 ar  
    11     4    34 1   
    12     5     6 ar  
    13     5    36 1   
    14     6    23 1   
    15     6    24 ar  
    16     7     8 ar  
    17     7    20 ar  
    18     7    59 1   
    19     8    58 1   
    20     9    10 ar  
    21     9    19 ar  
    22     9    58 1   
    23    10    11 1   
    24    10    16 ar  
    25    11    12 1   
    26    11    37 1   
    27    12    13 2   
    28    12    14 1   
    29    14    15 2   
    30    14    38 1   
    31    15    39 1   
    32    15    40 1   
    33    16    17 ar  
    34    16    41 1   
    35    17    18 ar  
    36    17    42 1   
    37    18    19 ar  
    38    18    43 1   
    39    19    44 1   
    40    20    21 ar  
    41    20    45 1   
    42    21    22 ar  
    43    22    23 1   
    44    23    46 1   
    45    24    25 ar  
    46    24    47 1   
    47    25    26 ar  
    48    25    48 1   
    49    27    30 1   
    50    27    49 1   
    51    27    50 1   
    52    28    29 1   
    53    28    51 1   
    54    28    52 1   
    55    29    30 1   
    56    29    53 1   
    57    29    54 1   
    58    30    31 1   
    59    31    55 1   
    60    31    56 1   
    61    31    57 1   
    62    35    58 1   
@<TRIPOS>SUBSTRUCTURE
     1 EWH         1 TEMP              0 ****  ****    0 ROOT
