@<TRIPOS>MOLECULE
EWH
   59    62     1     0     0
SMALL
No Charge or Current Charge


@<TRIPOS>ATOM
      1 N1          -6.4800     0.1900    -0.4430 nh         1 EWH      -0.776400
      2 C2          -7.2670    -0.8450     0.3060 c6         1 EWH       0.157800
      3 N3           1.3720     0.2760     0.5540 nb         1 EWH      -0.320000
      4 C4          -4.2620    -0.8440    -0.4190 ca         1 EWH      -0.133000
      5 C5          -2.8680    -0.7630    -0.2430 ca         1 EWH      -0.120000
      6 C6          -2.2610     0.4610     0.1020 ca         1 EWH       0.280000
      7 C18          2.1970    -1.8260     1.3690 ca         1 EWH      -0.131000
      8 C8           2.3970    -0.5050     0.9270 ca         1 EWH       0.441900
      9 C9           4.2060     1.2910     0.5420 ca         1 EWH       0.252000
     10 C14          5.4380     1.4160    -0.1510 ca         1 EWH      -0.047000
     11 N5           6.0940     0.2420    -0.6280 ns         1 EWH      -0.161000
     12 C15          7.4160     0.0060    -0.9770 c          1 EWH       0.606300
     13 O            8.3200     0.8190    -0.8330 o          1 EWH      -0.581100
     14 C16          7.6620    -1.3710    -1.5060 ce         1 EWH      -0.307200
     15 C17          8.8920    -1.8840    -1.7660 c2         1 EWH      -0.224000
     16 C13          5.9620     2.7040    -0.4060 ca         1 EWH      -0.101000
     17 C12          5.2840     3.8510     0.0380 ca         1 EWH      -0.099000
     18 C11          4.0760     3.7260     0.7380 ca         1 EWH      -0.116000
     19 C10          3.5420     2.4520     0.9890 ca         1 EWH      -0.086000
     20 C19          0.8720    -2.2870     1.4260 ca         1 EWH       0.189900
     21 N6          -0.1600    -1.5020     1.0640 nb         1 EWH      -0.261000
     22 C7           0.1490    -0.2650     0.6350 ca         1 EWH       0.429900
     23 N2          -0.8780     0.5940     0.2740 nu         1 EWH      -0.918900
     24 C20         -3.0710     1.6010     0.2420 ca         1 EWH      -0.120000
     25 C21         -4.4650     1.5190     0.0670 ca         1 EWH      -0.133000
     26 C3          -5.0780     0.2920    -0.2610 ca         1 EWH       0.265000
     27 C1          -8.6340    -1.1820    -0.3800 c6         1 EWH       0.158800
     28 C22         -7.2970     1.3770    -0.8600 c6         1 EWH       0.157800
     29 C23         -8.6620     0.9750    -1.5130 c6         1 EWH       0.158800
     30 N           -9.4620     0.0290    -0.6740 n3         1 EWH      -0.711600
     31 C          -10.0330     0.6590     0.5410 c3         1 EWH       0.150100
     32 H1          -6.6940    -1.7790     0.3980 h1         1 EWH       0.039950
     33 H2          -7.4590    -0.4890     1.3290 h1         1 EWH       0.039950
     34 H3          -4.7070    -1.7950    -0.6990 ha         1 EWH       0.114500
     35 H4           4.3930    -0.7000     0.9810 hn         1 EWH       0.517000
     36 H5          -2.2670    -1.6520    -0.4010 ha         1 EWH       0.129500
     37 H6           5.4770    -0.5450    -0.7760 hn         1 EWH       0.158000
     38 H7           6.7750    -1.9880    -1.6510 ha         1 EWH       0.179000
     39 H8           9.8050    -1.3030    -1.6180 ha         1 EWH       0.178000
     40 H9           9.0230    -2.9020    -2.1370 ha         1 EWH       0.178000
     41 H10          6.8850     2.8330    -0.9640 ha         1 EWH       0.137000
     42 H11          5.6960     4.8380    -0.1640 ha         1 EWH       0.118000
     43 H12          3.5550     4.6140     1.0890 ha         1 EWH       0.117000
     44 H13          2.6180     2.3700     1.5520 ha         1 EWH       0.129000
     45 H14          0.6320    -3.2940     1.7640 h4         1 EWH       0.033100
     46 H15         -0.5440     1.5530     0.1810 hn         1 EWH       0.510000
     47 H16         -2.6220     2.5560     0.5000 ha         1 EWH       0.129500
     48 H17         -5.0650     2.4150     0.1990 ha         1 EWH       0.114500
     49 H18         -8.4180    -1.7160    -1.3180 h1         1 EWH       0.059950
     50 H19         -9.1890    -1.8860     0.2570 h1         1 EWH       0.059950
     51 H20         -7.4930     2.0180     0.0120 h1         1 EWH       0.039950
     52 H21         -6.7370     1.9820    -1.5880 h1         1 EWH       0.039950
     53 H22         -9.2390     1.8870    -1.7260 h1         1 EWH       0.059950
     54 H23         -8.4470     0.5100    -2.4870 h1         1 EWH       0.059950
     55 H25         -9.2470     1.0240     1.2150 h1         1 EWH       0.030700
     56 H26        -10.6710     1.5110     0.2690 h1         1 EWH       0.030700
     57 H27        -10.6500    -0.0610     1.0940 h1         1 EWH       0.030700
     58 N4           3.6850     0.0170     0.8260 nu         1 EWH      -0.951900
     59 Cl           3.5390    -2.8790     1.8370 cl         1 EWH      -0.188000
@<TRIPOS>BOND
     1     1     2 1   
     2     1    26 1   
     3     1    28 1   
     4     2    27 1   
     5     2    32 1   
     6     2    33 1   
     7     3     8 ar  
     8     3    22 ar  
     9     4     5 ar  
    10     4    26 ar  
    11     4    34 1   
    12     5     6 ar  
    13     5    36 1   
    14     6    23 1   
    15     6    24 ar  
    16     7     8 ar  
    17     7    20 ar  
    18     7    59 1   
    19     8    58 1   
    20     9    10 ar  
    21     9    19 ar  
    22     9    58 1   
    23    10    11 1   
    24    10    16 ar  
    25    11    12 1   
    26    11    37 1   
    27    12    13 2   
    28    12    14 1   
    29    14    15 2   
    30    14    38 1   
    31    15    39 1   
    32    15    40 1   
    33    16    17 ar  
    34    16    41 1   
    35    17    18 ar  
    36    17    42 1   
    37    18    19 ar  
    38    18    43 1   
    39    19    44 1   
    40    20    21 ar  
    41    20    45 1   
    42    21    22 ar  
    43    22    23 1   
    44    23    46 1   
    45    24    25 ar  
    46    24    47 1   
    47    25    26 ar  
    48    25    48 1   
    49    27    30 1   
    50    27    49 1   
    51    27    50 1   
    52    28    29 1   
    53    28    51 1   
    54    28    52 1   
    55    29    30 1   
    56    29    53 1   
    57    29    54 1   
    58    30    31 1   
    59    31    55 1   
    60    31    56 1   
    61    31    57 1   
    62    35    58 1   
@<TRIPOS>SUBSTRUCTURE
     1 EWH         1 TEMP              0 ****  ****    0 ROOT
