@<TRIPOS>MOLECULE
EWJ
   38    41     1     0     0
SMALL
No Charge or Current Charge


@<TRIPOS>ATOM
      1 C2           5.8260    -1.1770    -1.1050 ca         1 EWJ      -0.092000
      2 C3           6.9530    -1.2670    -0.2700 ca         1 EWJ      -0.130000
      3 C4           6.8730    -0.8500     1.0700 ca         1 EWJ      -0.118000
      4 C5           5.6640    -0.3430     1.5780 ca         1 EWJ      -0.099000
      5 C14         -2.7870    -0.5390    -0.2500 ca         1 EWJ      -0.058000
      6 C15         -1.7300    -1.4390     0.0190 ca         1 EWJ      -0.106000
      7 C16         -0.4670    -0.9740     0.4210 ca         1 EWJ      -0.197000
      8 C17         -0.2260     0.4030     0.5620 ca         1 EWJ       0.133100
      9 C18         -1.2660     1.3200     0.3210 ca         1 EWJ      -0.134600
     10 C19         -2.5290     0.8440    -0.0910 ca         1 EWJ      -0.052000
     11 C20         -4.1170    -1.0330    -0.6790 cc         1 EWJ      -0.128000
     12 C21         -4.3680    -2.3680    -0.8640 cd         1 EWJ      -0.168000
     13 N22         -5.7090    -2.4390    -1.2670 na         1 EWJ      -0.015200
     14 N23         -6.3120    -1.1840    -1.3450 nd         1 EWJ      -0.571800
     15 C24         -5.3340    -0.3760    -0.9890 cc         1 EWJ       0.485200
     16 C25         -1.0460     2.7990     0.4780 c          1 EWJ       0.718600
     17 O26         -1.3800     3.5250    -0.4470 o          1 EWJ      -0.704500
     18 O27         -0.6280     3.2190     1.5480 o          1 EWJ      -0.704500
     19 C29          2.1890     0.3370     0.4220 ca         1 EWJ       0.147100
     20 C30          3.3190     0.2550     1.2510 ca         1 EWJ      -0.139000
     21 C31          4.5320    -0.2520     0.7470 ca         1 EWJ      -0.015000
     22 C32          4.6130    -0.6700    -0.6010 ca         1 EWJ      -0.059000
     23 C33          3.4820    -0.5760    -1.4340 ca         1 EWJ      -0.100000
     24 C34          2.2730    -0.0690    -0.9250 ca         1 EWJ      -0.124000
     25 F1          -5.4670     0.9560    -0.9190 f          1 EWJ      -0.206200
     26 H1           5.8960    -1.5010    -2.1410 ha         1 EWJ       0.103000
     27 H2           7.8890    -1.6590    -0.6620 ha         1 EWJ       0.100000
     28 H3           7.7460    -0.9200     1.7140 ha         1 EWJ       0.101000
     29 H4           5.6100    -0.0220     2.6160 ha         1 EWJ       0.111000
     30 H7          -3.3030     1.5790    -0.2800 ha         1 EWJ       0.141000
     31 H8          -3.7490    -3.2500    -0.7550 h4         1 EWJ       0.152000
     32 H9          -6.2230    -3.2920    -1.4900 hn         1 EWJ       0.366000
     33 H11          3.2480     0.5810     2.2850 ha         1 EWJ       0.132000
     34 H12          3.5390    -0.8900    -2.4740 ha         1 EWJ       0.105000
     35 H13          1.4080     0.0110    -1.5780 ha         1 EWJ       0.136000
     36 O28          1.0210     0.8500     0.9410 os         1 EWJ      -0.201200
     37 H5          -1.8650    -2.5110    -0.0770 ha         1 EWJ       0.085000
     38 H6           0.3260    -1.6900     0.6220 ha         1 EWJ       0.103000
@<TRIPOS>BOND
     1     1     2 ar  
     2     1    22 ar  
     3     1    26 1   
     4     2     3 ar  
     5     2    27 1   
     6     3     4 ar  
     7     3    28 1   
     8     4    21 ar  
     9     4    29 1   
    10     5     6 ar  
    11     5    10 ar  
    12     5    11 1   
    13     6     7 ar  
    14     6    37 1   
    15     7     8 ar  
    16     7    38 1   
    17     8     9 ar  
    18     8    36 1   
    19     9    10 ar  
    20     9    16 1   
    21    10    30 1   
    22    11    12 2   
    23    11    15 1   
    24    12    13 1   
    25    12    31 1   
    26    13    14 1   
    27    13    32 1   
    28    14    15 2   
    29    15    25 1   
    30    16    17 1   
    31    16    18 1   
    32    19    20 ar  
    33    19    24 ar  
    34    19    36 1   
    35    20    21 ar  
    36    20    33 1   
    37    21    22 ar  
    38    22    23 ar  
    39    23    24 ar  
    40    23    34 1   
    41    24    35 1   
@<TRIPOS>SUBSTRUCTURE
     1 EWJ         1 TEMP              0 ****  ****    0 ROOT
