@<TRIPOS>MOLECULE
EWJ
   38    41     1     0     0
SMALL
abcg2


@<TRIPOS>ATOM
      1 C2           5.8090    -1.2430    -1.0030 ca         1 EWJ      -0.092000
      2 C3           6.8100    -1.4640    -0.0960 ca         1 EWJ      -0.130000
      3 C4           6.6300    -1.1090     1.2570 ca         1 EWJ      -0.118000
      4 C5           5.4570    -0.5410     1.6760 ca         1 EWJ      -0.099000
      5 C14         -2.6650    -0.5350    -0.2270 ca         1 EWJ      -0.058000
      6 C15         -1.5670    -1.3540     0.0360 ca         1 EWJ      -0.106000
      7 C16         -0.3290    -0.8080     0.3180 ca         1 EWJ      -0.197000
      8 C17         -0.1670     0.5740     0.3670 ca         1 EWJ       0.133100
      9 C18         -1.2450     1.4260     0.1200 ca         1 EWJ      -0.134600
     10 C19         -2.4720     0.8440    -0.1900 ca         1 EWJ      -0.052000
     11 C20         -3.9650    -1.1240    -0.5420 cc         1 EWJ      -0.128000
     12 C21         -4.2290    -2.3330    -1.1620 cd         1 EWJ      -0.168000
     13 N22         -5.5580    -2.4680    -1.2190 na         1 EWJ      -0.015200
     14 N23         -6.2140    -1.4380    -0.6860 nd         1 EWJ      -0.571800
     15 C24         -5.2610    -0.6430    -0.2870 cc         1 EWJ       0.485200
     16 C25         -1.1580     2.9500     0.1840 c          1 EWJ       0.718600
     17 O26         -1.9090     3.5670    -0.5940 o          1 EWJ      -0.704500
     18 O27         -0.3770     3.4370     1.0190 o          1 EWJ      -0.704500
     19 C29          2.1850     0.4910     0.2590 ca         1 EWJ       0.147100
     20 C30          3.1790     0.2720     1.1700 ca         1 EWJ      -0.139000
     21 C31          4.4050    -0.3020     0.7610 ca         1 EWJ      -0.015000
     22 C32          4.5850    -0.6610    -0.6000 ca         1 EWJ      -0.059000
     23 C33          3.5300    -0.4200    -1.5120 ca         1 EWJ      -0.100000
     24 C34          2.3560     0.1440    -1.1010 ca         1 EWJ      -0.124000
     25 F1          -5.5710     0.4960     0.3200 f          1 EWJ      -0.206200
     26 H1           5.9440    -1.5130    -2.0440 ha         1 EWJ       0.103000
     27 H2           7.7420    -1.9110    -0.4140 ha         1 EWJ       0.100000
     28 H3           7.4260    -1.2890     1.9680 ha         1 EWJ       0.101000
     29 H4           5.3210    -0.2700     2.7160 ha         1 EWJ       0.111000
     30 H7          -3.2940     1.5080    -0.4230 ha         1 EWJ       0.141000
     31 H8          -3.5630    -3.0780    -1.5650 h4         1 EWJ       0.152000
     32 H9          -6.0740    -3.2340    -1.6210 hn         1 EWJ       0.366000
     33 H11          3.0330     0.5420     2.2090 ha         1 EWJ       0.132000
     34 H12          3.6650    -0.6810    -2.5540 ha         1 EWJ       0.105000
     35 H13          1.5630     0.3330    -1.8140 ha         1 EWJ       0.136000
     36 O28          1.0470     1.1190     0.6740 os         1 EWJ      -0.201200
     37 H5          -1.6770    -2.4320     0.0360 ha         1 EWJ       0.085000
     38 H6           0.5060    -1.4670     0.5170 ha         1 EWJ       0.103000
@<TRIPOS>BOND
     1     1     2 ar  
     2     1    22 ar  
     3     1    26 1   
     4     2     3 ar  
     5     2    27 1   
     6     3     4 ar  
     7     3    28 1   
     8     4    21 ar  
     9     4    29 1   
    10     5     6 ar  
    11     5    10 ar  
    12     5    11 1   
    13     6     7 ar  
    14     6    37 1   
    15     7     8 ar  
    16     7    38 1   
    17     8     9 ar  
    18     8    36 1   
    19     9    10 ar  
    20     9    16 1   
    21    10    30 1   
    22    11    12 2   
    23    11    15 1   
    24    12    13 1   
    25    12    31 1   
    26    13    14 1   
    27    13    32 1   
    28    14    15 2   
    29    15    25 1   
    30    16    17 1   
    31    16    18 1   
    32    19    20 ar  
    33    19    24 ar  
    34    19    36 1   
    35    20    21 ar  
    36    20    33 1   
    37    21    22 ar  
    38    22    23 ar  
    39    23    24 ar  
    40    23    34 1   
    41    24    35 1   
@<TRIPOS>SUBSTRUCTURE
     1 EWJ         1 TEMP              0 ****  ****    0 ROOT
