@<TRIPOS>MOLECULE
EWK
   47    50     1     0     0
SMALL
No Charge or Current Charge


@<TRIPOS>ATOM
      1 CAK        -61.1870   -15.5150    24.0360 ca         1 EWK      -0.007000
      2 CAL        -62.2350   -15.0380    23.2380 ca         1 EWK      -0.204000
      3 SAM        -63.6380   -15.9620    22.7320 ss         1 EWK      -0.053200
      4 CAN        -64.0880   -14.4870    21.8540 cc         1 EWK       0.670100
      5 NAO        -65.1910   -14.4020    21.1000 nv         1 EWK      -1.022200
      6 NAP        -63.3130   -13.4170    21.9090 nd         1 EWK      -0.644100
      7 CAQ        -62.2320   -13.7580    22.7150 ca         1 EWK       0.173400
      8 CAR        -61.1600   -12.8940    22.9920 ca         1 EWK      -0.099000
      9 CAS        -60.0800   -13.3540    23.7740 ca         1 EWK      -0.059000
     10 CAJ        -60.0900   -14.6680    24.2880 ca         1 EWK      -0.130000
     11 SAT        -58.6530   -15.3230    25.1280 ss         1 EWK      -0.247000
     12 CAI        -57.6000   -15.9130    23.7160 c3         1 EWK       0.124900
     13 CAH        -58.4820   -16.4650    22.6010 ca         1 EWK      -0.068300
     14 CAG        -58.7570   -15.6810    21.4660 ca         1 EWK      -0.106000
     15 CAF        -59.6990   -16.1090    20.5180 ca         1 EWK      -0.071000
     16 CAE        -59.1240   -17.7080    22.7500 ca         1 EWK      -0.106000
     17 CAD        -60.0740   -18.1360    21.8060 ca         1 EWK      -0.071000
     18 CAC        -60.3930   -17.3280    20.6880 ca         1 EWK      -0.143600
     19 CAA        -61.4730   -17.7090    19.6970 c          1 EWK       0.612700
     20 OAB        -61.6310   -17.1100    18.6410 o          1 EWK      -0.607100
     21 NAU        -62.2800   -18.7680    20.0480 ns         1 EWK      -0.500900
     22 CAV        -63.4320   -19.2260    19.2740 c3         1 EWK       0.152300
     23 CAW        -64.6890   -18.4360    19.6170 ca         1 EWK      -0.107300
     24 CAX        -65.3400   -18.6380    20.8510 ca         1 EWK      -0.093000
     25 CAY        -66.5090   -17.9220    21.1620 ca         1 EWK      -0.120500
     26 CAZ        -67.0380   -17.0030    20.2410 ca         1 EWK      -0.125000
     27 CBA        -66.3900   -16.7920    19.0120 ca         1 EWK      -0.120500
     28 CBB        -65.2170   -17.5040    18.7020 ca         1 EWK      -0.093000
     29 H1         -61.1970   -16.5360    24.4090 ha         1 EWK       0.131000
     30 H2         -65.1980   -13.6240    20.4530 hn         1 EWK       0.500500
     31 H3         -65.5700   -15.2750    20.7540 hn         1 EWK       0.500500
     32 H4         -61.1500   -11.8890    22.5800 ha         1 EWK       0.133000
     33 H5         -59.2280   -12.7040    23.9550 ha         1 EWK       0.125000
     34 H6         -56.9040   -16.6820    24.0740 h1         1 EWK       0.076700
     35 H7         -57.0120   -15.0670    23.3380 h1         1 EWK       0.076700
     36 H8         -58.2780   -14.7130    21.3420 ha         1 EWK       0.121000
     37 H9         -59.9210   -15.4660    19.6680 ha         1 EWK       0.125500
     38 H10        -58.9240   -18.3210    23.6260 ha         1 EWK       0.121000
     39 H11        -60.5670   -19.0910    21.9720 ha         1 EWK       0.125500
     40 H12        -62.1020   -19.2010    20.9440 hn         1 EWK       0.314500
     41 H13        -63.6010   -20.2890    19.4920 h1         1 EWK       0.064200
     42 H14        -63.2110   -19.1420    18.2020 h1         1 EWK       0.064200
     43 H15        -64.9410   -19.3540    21.5670 ha         1 EWK       0.118500
     44 H16        -67.0080   -18.0860    22.1150 ha         1 EWK       0.118500
     45 H17        -67.9490   -16.4570    20.4780 ha         1 EWK       0.117000
     46 H18        -66.7980   -16.0810    18.2950 ha         1 EWK       0.118500
     47 H19        -64.7230   -17.3350    17.7480 ha         1 EWK       0.118500
@<TRIPOS>BOND
     1     1     2 ar  
     2     1    10 ar  
     3     1    29 1   
     4     2     3 1   
     5     2     7 ar  
     6     3     4 1   
     7     4     5 1   
     8     4     6 2   
     9     5    30 1   
    10     5    31 1   
    11     6     7 1   
    12     7     8 ar  
    13     8     9 ar  
    14     8    32 1   
    15     9    10 ar  
    16     9    33 1   
    17    10    11 1   
    18    11    12 1   
    19    12    13 1   
    20    12    34 1   
    21    12    35 1   
    22    13    14 ar  
    23    13    16 ar  
    24    14    15 ar  
    25    14    36 1   
    26    15    18 ar  
    27    15    37 1   
    28    16    17 ar  
    29    16    38 1   
    30    17    18 ar  
    31    17    39 1   
    32    18    19 1   
    33    19    20 2   
    34    19    21 1   
    35    21    22 1   
    36    21    40 1   
    37    22    23 1   
    38    22    41 1   
    39    22    42 1   
    40    23    24 ar  
    41    23    28 ar  
    42    24    25 ar  
    43    24    43 1   
    44    25    26 ar  
    45    25    44 1   
    46    26    27 ar  
    47    26    45 1   
    48    27    28 ar  
    49    27    46 1   
    50    28    47 1   
@<TRIPOS>SUBSTRUCTURE
     1 EWK         1 TEMP              0 ****  ****    0 ROOT
