@<TRIPOS>MOLECULE
EWK
   47    50     1     0     0
SMALL
abcg2


@<TRIPOS>ATOM
      1 CAK        -61.1180   -15.5560    24.0450 ca         1 EWK      -0.007000
      2 CAL        -62.1330   -15.0600    23.2480 ca         1 EWK      -0.204000
      3 SAM        -63.5210   -15.9070    22.6070 ss         1 EWK      -0.053200
      4 CAN        -63.9660   -14.4220    21.7440 cc         1 EWK       0.670100
      5 NAO        -65.0830   -14.3900    20.9940 nv         1 EWK      -1.022200
      6 NAP        -63.1690   -13.4050    21.9210 nd         1 EWK      -0.644100
      7 CAQ        -62.1210   -13.7350    22.7570 ca         1 EWK       0.173400
      8 CAR        -61.0670   -12.8940    23.1200 ca         1 EWK      -0.099000
      9 CAS        -60.0360   -13.3930    23.9030 ca         1 EWK      -0.059000
     10 CAJ        -60.0430   -14.7200    24.3500 ca         1 EWK      -0.130000
     11 SAT        -58.6140   -15.4200    25.1450 ss         1 EWK      -0.247000
     12 CAI        -57.6080   -15.9050    23.6430 c3         1 EWK       0.124900
     13 CAH        -58.4850   -16.4550    22.5680 ca         1 EWK      -0.068300
     14 CAG        -58.9350   -15.6210    21.5440 ca         1 EWK      -0.106000
     15 CAF        -59.9080   -16.0500    20.6560 ca         1 EWK      -0.071000
     16 CAE        -58.9870   -17.7550    22.6370 ca         1 EWK      -0.106000
     17 CAD        -59.9570   -18.1900    21.7460 ca         1 EWK      -0.071000
     18 CAC        -60.4520   -17.3290    20.7620 ca         1 EWK      -0.143600
     19 CAA        -61.5570   -17.6960    19.8200 c          1 EWK       0.612700
     20 OAB        -61.7610   -17.0480    18.7900 o          1 EWK      -0.607100
     21 NAU        -62.3160   -18.7600    20.1540 ns         1 EWK      -0.500900
     22 CAV        -63.4440   -19.1970    19.3450 c3         1 EWK       0.152300
     23 CAW        -64.7200   -18.4260    19.6080 ca         1 EWK      -0.107300
     24 CAX        -65.3080   -18.4450    20.8740 ca         1 EWK      -0.093000
     25 CAY        -66.4900   -17.7550    21.1170 ca         1 EWK      -0.120500
     26 CAZ        -67.1030   -17.0370    20.0910 ca         1 EWK      -0.125000
     27 CBA        -66.5220   -17.0110    18.8270 ca         1 EWK      -0.120500
     28 CBB        -65.3360   -17.7020    18.5910 ca         1 EWK      -0.093000
     29 H1         -61.1200   -16.5840    24.3770 ha         1 EWK       0.131000
     30 H2         -65.2170   -13.5960    20.3860 hn         1 EWK       0.500500
     31 H3         -65.5520   -15.2460    20.7380 hn         1 EWK       0.500500
     32 H4         -61.0460   -11.8730    22.7610 ha         1 EWK       0.133000
     33 H5         -59.1930   -12.7600    24.1470 ha         1 EWK       0.125000
     34 H6         -56.9020   -16.6410    24.0270 h1         1 EWK       0.076700
     35 H7         -57.0660   -15.0250    23.3030 h1         1 EWK       0.076700
     36 H8         -58.5540   -14.6100    21.4770 ha         1 EWK       0.121000
     37 H9         -60.2790   -15.3850    19.8890 ha         1 EWK       0.125500
     38 H10        -58.6410   -18.4210    23.4190 ha         1 EWK       0.121000
     39 H11        -60.3190   -19.2060    21.8310 ha         1 EWK       0.125500
     40 H12        -62.1970   -19.1870    21.0570 hn         1 EWK       0.314500
     41 H13        -63.6000   -20.2550    19.5610 h1         1 EWK       0.064200
     42 H14        -63.1700   -19.1040    18.2960 h1         1 EWK       0.064200
     43 H15        -64.8360   -19.0000    21.6760 ha         1 EWK       0.118500
     44 H16        -66.9330   -17.7740    22.1050 ha         1 EWK       0.118500
     45 H17        -68.0240   -16.5000    20.2780 ha         1 EWK       0.117000
     46 H18        -66.9870   -16.4490    18.0270 ha         1 EWK       0.118500
     47 H19        -64.8820   -17.6770    17.6070 ha         1 EWK       0.118500
@<TRIPOS>BOND
     1     1     2 ar  
     2     1    10 ar  
     3     1    29 1   
     4     2     3 1   
     5     2     7 ar  
     6     3     4 1   
     7     4     5 1   
     8     4     6 2   
     9     5    30 1   
    10     5    31 1   
    11     6     7 1   
    12     7     8 ar  
    13     8     9 ar  
    14     8    32 1   
    15     9    10 ar  
    16     9    33 1   
    17    10    11 1   
    18    11    12 1   
    19    12    13 1   
    20    12    34 1   
    21    12    35 1   
    22    13    14 ar  
    23    13    16 ar  
    24    14    15 ar  
    25    14    36 1   
    26    15    18 ar  
    27    15    37 1   
    28    16    17 ar  
    29    16    38 1   
    30    17    18 ar  
    31    17    39 1   
    32    18    19 1   
    33    19    20 2   
    34    19    21 1   
    35    21    22 1   
    36    21    40 1   
    37    22    23 1   
    38    22    41 1   
    39    22    42 1   
    40    23    24 ar  
    41    23    28 ar  
    42    24    25 ar  
    43    24    43 1   
    44    25    26 ar  
    45    25    44 1   
    46    26    27 ar  
    47    26    45 1   
    48    27    28 ar  
    49    27    46 1   
    50    28    47 1   
@<TRIPOS>SUBSTRUCTURE
     1 EWK         1 TEMP              0 ****  ****    0 ROOT
