@<TRIPOS>MOLECULE
EWL
   42    44     1     0     0
SMALL
No Charge or Current Charge


@<TRIPOS>ATOM
      1 O           11.1670   -29.2590    15.6400 o          1 EWL      -0.564000
      2 C4          11.7990   -28.7230    14.7460 c          1 EWL       0.595000
      3 N3          13.0300   -29.1080    14.1910 n          1 EWL      -0.370300
      4 C9          13.8010   -30.2880    14.6060 c3         1 EWL       0.171300
      5 C10         13.6870   -31.4450    13.6210 ca         1 EWL      -0.118300
      6 C11         12.5380   -32.2610    13.6200 ca         1 EWL      -0.084500
      7 C12         12.4260   -33.3250    12.7070 ca         1 EWL      -0.118000
      8 C13         13.4610   -33.5770    11.7910 ca         1 EWL      -0.100000
      9 C15         14.6070   -32.7650    11.7860 ca         1 EWL      -0.118000
     10 C14         14.7200   -31.7010    12.6980 ca         1 EWL      -0.084500
     11 C1          13.4160   -28.1990    13.1690 ca         1 EWL       0.244900
     12 N           14.5140   -28.2150    12.4060 nb         1 EWL      -0.290000
     13 C3          14.5990   -27.1890    11.5140 ca         1 EWL       0.407300
     14 N1          13.6740   -26.2030    11.3480 nb         1 EWL      -0.287000
     15 C2          12.5860   -26.2280    12.1360 ca         1 EWL       0.433900
     16 N4          11.6700   -25.2420    11.9580 nv         1 EWL      -1.060900
     17 C           12.4360   -27.2440    13.0780 ca         1 EWL      -0.224400
     18 N2          11.4670   -27.5900    14.0480 ns         1 EWL      -0.485600
     19 O1          15.6890   -27.1300    10.6720 os         1 EWL      -0.438300
     20 C5          16.9270   -27.8170    10.9630 c3         1 EWL       0.177600
     21 C6          17.6410   -27.1230    12.1510 c3         1 EWL      -0.106400
     22 C7          17.9780   -25.6340    11.9030 c3         1 EWL      -0.074400
     23 C8          18.7240   -24.9820    13.0830 c3         1 EWL      -0.089100
     24 H1          13.4540   -30.6180    15.5940 h1         1 EWL       0.073700
     25 H2          14.8540   -29.9990    14.7160 h1         1 EWL       0.073700
     26 H3          11.7310   -32.0690    14.3250 ha         1 EWL       0.121000
     27 H4          11.5370   -33.9520    12.7110 ha         1 EWL       0.112500
     28 H5          13.3730   -34.4000    11.0840 ha         1 EWL       0.112000
     29 H6          15.4070   -32.9580    11.0750 ha         1 EWL       0.112500
     30 H7          15.6100   -31.0750    12.6850 ha         1 EWL       0.121000
     31 H8          11.7490   -24.6680    11.1230 hn         1 EWL       0.490000
     32 H9          10.7330   -25.3770    12.3250 hn         1 EWL       0.490000
     33 H10         10.6230   -27.0610    14.2540 hn         1 EWL       0.466000
     34 H11         16.7530   -28.8770    11.1930 h1         1 EWL       0.061700
     35 H12         17.5890   -27.7790    10.0870 h1         1 EWL       0.061700
     36 H13         17.0270   -27.2140    13.0550 hc         1 EWL       0.053200
     37 H14         18.5700   -27.6690    12.3550 hc         1 EWL       0.053200
     38 H15         18.5930   -25.5460    10.9980 hc         1 EWL       0.044200
     39 H16         17.0540   -25.0720    11.7170 hc         1 EWL       0.044200
     40 H17         18.9420   -23.9300    12.8630 hc         1 EWL       0.031367
     41 H18         18.1180   -25.0240    13.9960 hc         1 EWL       0.031367
     42 H19         19.6740   -25.4960    13.2730 hc         1 EWL       0.031367
@<TRIPOS>BOND
     1     1     2 2   
     2     2     3 1   
     3     2    18 1   
     4     3     4 1   
     5     3    11 1   
     6     4     5 1   
     7     4    24 1   
     8     4    25 1   
     9     5     6 ar  
    10     5    10 ar  
    11     6     7 ar  
    12     6    26 1   
    13     7     8 ar  
    14     7    27 1   
    15     8     9 ar  
    16     8    28 1   
    17     9    10 ar  
    18     9    29 1   
    19    10    30 1   
    20    11    12 ar  
    21    11    17 ar  
    22    12    13 ar  
    23    13    14 ar  
    24    13    19 1   
    25    14    15 ar  
    26    15    16 1   
    27    15    17 ar  
    28    16    31 1   
    29    16    32 1   
    30    17    18 1   
    31    18    33 1   
    32    19    20 1   
    33    20    21 1   
    34    20    34 1   
    35    20    35 1   
    36    21    22 1   
    37    21    36 1   
    38    21    37 1   
    39    22    23 1   
    40    22    38 1   
    41    22    39 1   
    42    23    40 1   
    43    23    41 1   
    44    23    42 1   
@<TRIPOS>SUBSTRUCTURE
     1 EWL         1 TEMP              0 ****  ****    0 ROOT
