@<TRIPOS>MOLECULE
EWL
   42    44     1     0     0
SMALL
bcc


@<TRIPOS>ATOM
      1 O           11.1460   -29.3580    15.5440 o          1 EWL      -0.639500
      2 C4          11.7070   -28.7260    14.6670 c          1 EWL       0.804500
      3 N3          12.9860   -28.9580    14.1780 n          1 EWL      -0.437300
      4 C9          13.8610   -30.0250    14.6150 c3         1 EWL       0.171300
      5 C10         13.8720   -31.1820    13.6500 ca         1 EWL      -0.118300
      6 C11         12.8070   -32.0790    13.6130 ca         1 EWL      -0.102500
      7 C12         12.8060   -33.1310    12.7080 ca         1 EWL      -0.136000
      8 C13         13.8720   -33.2990    11.8320 ca         1 EWL      -0.118000
      9 C15         14.9370   -32.4100    11.8660 ca         1 EWL      -0.136000
     10 C14         14.9340   -31.3550    12.7700 ca         1 EWL      -0.102500
     11 C1          13.2700   -28.0630    13.1870 ca         1 EWL       0.573200
     12 N           14.3920   -27.9910    12.4910 nb         1 EWL      -0.816000
     13 C3          14.3760   -27.0130    11.6000 ca         1 EWL       0.933300
     14 N1          13.4000   -26.1500    11.3650 nb         1 EWL      -0.813000
     15 C2          12.2720   -26.2310    12.0810 ca         1 EWL       0.762200
     16 N4          11.3080   -25.3200    11.8520 nv         1 EWL      -0.950500
     17 C           12.1780   -27.2330    13.0440 ca         1 EWL      -0.355000
     18 N2          11.2300   -27.6580    13.9630 ns         1 EWL      -0.439100
     19 O1          15.4340   -26.8430    10.8110 os         1 EWL      -0.415100
     20 C5          16.5530   -27.7220    10.9460 c3         1 EWL       0.154400
     21 C6          17.4680   -27.3540    12.0980 c3         1 EWL      -0.106400
     22 C7          18.0750   -25.9600    11.9890 c3         1 EWL      -0.074400
     23 C8          19.0290   -25.6560    13.1350 c3         1 EWL      -0.089100
     24 H1          13.5230   -30.3420    15.6010 h1         1 EWL       0.073700
     25 H2          14.8640   -29.6150    14.7310 h1         1 EWL       0.073700
     26 H3          11.9780   -31.9570    14.2990 ha         1 EWL       0.139000
     27 H4          11.9730   -33.8230    12.6890 ha         1 EWL       0.130500
     28 H5          13.8720   -34.1220    11.1290 ha         1 EWL       0.130000
     29 H6          15.7710   -32.5360    11.1880 ha         1 EWL       0.130500
     30 H7          15.7610   -30.6560    12.7860 ha         1 EWL       0.139000
     31 H8          11.3820   -24.7610    11.0180 hn         1 EWL       0.434800
     32 H9          10.3750   -25.4740    12.1910 hn         1 EWL       0.434800
     33 H10         10.3150   -27.2670    14.1220 hn         1 EWL       0.352500
     34 H11         16.2110   -28.7550    11.0370 h1         1 EWL       0.061700
     35 H12         17.0880   -27.6290    10.0000 h1         1 EWL       0.061700
     36 H13         16.9380   -27.4650    13.0480 hc         1 EWL       0.053200
     37 H14         18.2720   -28.0980    12.1100 hc         1 EWL       0.053200
     38 H15         18.6050   -25.8710    11.0350 hc         1 EWL       0.044200
     39 H16         17.2820   -25.2080    11.9700 hc         1 EWL       0.044200
     40 H17         19.4710   -24.6640    13.0360 hc         1 EWL       0.031367
     41 H18         18.5130   -25.6920    14.0960 hc         1 EWL       0.031367
     42 H19         19.8460   -26.3800    13.1740 hc         1 EWL       0.031367
@<TRIPOS>BOND
     1     1     2 2   
     2     2     3 1   
     3     2    18 1   
     4     3     4 1   
     5     3    11 1   
     6     4     5 1   
     7     4    24 1   
     8     4    25 1   
     9     5     6 ar  
    10     5    10 ar  
    11     6     7 ar  
    12     6    26 1   
    13     7     8 ar  
    14     7    27 1   
    15     8     9 ar  
    16     8    28 1   
    17     9    10 ar  
    18     9    29 1   
    19    10    30 1   
    20    11    12 ar  
    21    11    17 ar  
    22    12    13 ar  
    23    13    14 ar  
    24    13    19 1   
    25    14    15 ar  
    26    15    16 1   
    27    15    17 ar  
    28    16    31 1   
    29    16    32 1   
    30    17    18 1   
    31    18    33 1   
    32    19    20 1   
    33    20    21 1   
    34    20    34 1   
    35    20    35 1   
    36    21    22 1   
    37    21    36 1   
    38    21    37 1   
    39    22    23 1   
    40    22    38 1   
    41    22    39 1   
    42    23    40 1   
    43    23    41 1   
    44    23    42 1   
@<TRIPOS>SUBSTRUCTURE
     1 EWL         1 TEMP              0 ****  ****    0 ROOT
