@<TRIPOS>MOLECULE
EWM
   49    49     1     0     0
SMALL
No Charge or Current Charge


@<TRIPOS>ATOM
      1 O9          -3.5870     1.1240     1.9930 o          1 EWM      -0.580100
      2 C8          -3.3070     0.8910     0.8250 c          1 EWM       0.607100
      3 N7          -4.1430     0.1890    -0.0240 ns         1 EWM      -0.511900
      4 C1          -5.4370    -0.3180     0.5080 c5         1 EWM       0.005700
      5 C5          -6.4560     0.8310     0.2920 c5         1 EWM      -0.136400
      6 C4          -6.8950     0.5400    -1.1680 c5         1 EWM       0.155600
      7 OAP         -6.8690    -0.9010    -1.2930 os         1 EWM      -0.428100
      8 C2          -5.9450    -1.4340    -0.4340 c          1 EWM       0.630100
      9 O6          -5.6280    -2.6150    -0.4330 o          1 EWM      -0.462000
     10 C10         -2.0100     1.3890     0.1790 c3         1 EWM      -0.154400
     11 C11         -0.7870     0.5690     0.6550 c3         1 EWM      -0.066400
     12 C13          0.5390     1.0420     0.0200 c3         1 EWM      -0.076400
     13 C14          1.7610     0.2250     0.4950 c3         1 EWM      -0.074400
     14 C15          3.0870     0.6970    -0.1400 c3         1 EWM      -0.074400
     15 C16          4.3090    -0.1190     0.3350 c3         1 EWM      -0.074400
     16 C17          5.6350     0.3540    -0.3000 c3         1 EWM      -0.074400
     17 C18          6.8580    -0.4620     0.1750 c3         1 EWM      -0.074400
     18 C19          8.1840     0.0110    -0.4600 c3         1 EWM      -0.075400
     19 C20          9.4060    -0.8050     0.0150 c3         1 EWM      -0.074400
     20 C21         10.7290    -0.3330    -0.6180 c3         1 EWM      -0.088100
     21 H1          -3.8190     0.0420    -0.9750 hn         1 EWM       0.313500
     22 H2          -5.3950    -0.6890     1.5420 h1         1 EWM       0.120700
     23 H3          -7.3090     0.7330     0.9730 hc         1 EWM       0.075200
     24 H4          -6.0420     1.8370     0.4280 hc         1 EWM       0.075200
     25 H5          -7.8960     0.9250    -1.4040 h1         1 EWM       0.062700
     26 H6          -6.1810     0.9660    -1.8870 h1         1 EWM       0.062700
     27 H7          -2.0790     1.3070    -0.9120 hc         1 EWM       0.055200
     28 H8          -1.8570     2.4370     0.4630 hc         1 EWM       0.055200
     29 H9          -0.7090     0.6380     1.7480 hc         1 EWM       0.058200
     30 H10         -0.9460    -0.4900     0.4140 hc         1 EWM       0.058200
     31 H11          0.4610     0.9710    -1.0720 hc         1 EWM       0.035200
     32 H12          0.6980     2.1000     0.2630 hc         1 EWM       0.035200
     33 H13          1.8390     0.2950     1.5870 hc         1 EWM       0.041200
     34 H14          1.6030    -0.8340     0.2530 hc         1 EWM       0.041200
     35 H15          3.0090     0.6270    -1.2320 hc         1 EWM       0.036200
     36 H16          3.2450     1.7560     0.1020 hc         1 EWM       0.036200
     37 H17          4.3870    -0.0480     1.4270 hc         1 EWM       0.038200
     38 H18          4.1510    -1.1770     0.0930 hc         1 EWM       0.038200
     39 H19          5.5570     0.2830    -1.3920 hc         1 EWM       0.036700
     40 H20          5.7930     1.4130    -0.0580 hc         1 EWM       0.036700
     41 H21          6.9360    -0.3910     1.2670 hc         1 EWM       0.037200
     42 H22          6.7000    -1.5210    -0.0670 hc         1 EWM       0.037200
     43 H23          8.1060    -0.0600    -1.5520 hc         1 EWM       0.036700
     44 H24          8.3420     1.0700    -0.2180 hc         1 EWM       0.036700
     45 H25          9.4890    -0.7350     1.1070 hc         1 EWM       0.036700
     46 H26          9.2530    -1.8640    -0.2270 hc         1 EWM       0.036700
     47 H27         10.6920    -0.4240    -1.7100 hc         1 EWM       0.031367
     48 H28         10.9290     0.7150    -0.3640 hc         1 EWM       0.031367
     49 H29         11.5660    -0.9400    -0.2520 hc         1 EWM       0.031367
@<TRIPOS>BOND
     1     1     2 2   
     2     2     3 1   
     3     2    10 1   
     4     3     4 1   
     5     3    21 1   
     6     4     5 1   
     7     4     8 1   
     8     4    22 1   
     9     5     6 1   
    10     5    23 1   
    11     5    24 1   
    12     6     7 1   
    13     6    25 1   
    14     6    26 1   
    15     7     8 1   
    16     8     9 2   
    17    10    11 1   
    18    10    27 1   
    19    10    28 1   
    20    11    12 1   
    21    11    29 1   
    22    11    30 1   
    23    12    13 1   
    24    12    31 1   
    25    12    32 1   
    26    13    14 1   
    27    13    33 1   
    28    13    34 1   
    29    14    15 1   
    30    14    35 1   
    31    14    36 1   
    32    15    16 1   
    33    15    37 1   
    34    15    38 1   
    35    16    17 1   
    36    16    39 1   
    37    16    40 1   
    38    17    18 1   
    39    17    41 1   
    40    17    42 1   
    41    18    19 1   
    42    18    43 1   
    43    18    44 1   
    44    19    20 1   
    45    19    45 1   
    46    19    46 1   
    47    20    47 1   
    48    20    48 1   
    49    20    49 1   
@<TRIPOS>SUBSTRUCTURE
     1 EWM         1 TEMP              0 ****  ****    0 ROOT
