@<TRIPOS>MOLECULE
EWM
   49    49     1     0     0
SMALL
abcg2


@<TRIPOS>ATOM
      1 O9          -3.2260    -0.0590     1.9450 o          1 EWM      -0.580100
      2 C8          -3.1830     0.4100     0.8190 c          1 EWM       0.607100
      3 N7          -4.2900     0.6040     0.0670 ns         1 EWM      -0.511900
      4 C1          -5.6250     0.3120     0.5270 c5         1 EWM       0.005700
      5 C5          -6.6720     1.2880     0.0100 c5         1 EWM      -0.136400
      6 C4          -7.1370     0.6320    -1.2840 c5         1 EWM       0.155600
      7 OAP         -6.9420    -0.7770    -1.0770 os         1 EWM      -0.428100
      8 C2          -6.0910    -1.0120    -0.0820 c          1 EWM       0.630100
      9 O6          -5.7520    -2.1210     0.2200 o          1 EWM      -0.462000
     10 C10         -1.8980     0.8650     0.1650 c3         1 EWM      -0.154400
     11 C11         -0.6640     0.1280     0.6640 c3         1 EWM      -0.066400
     12 C13          0.6100     0.6390     0.0020 c3         1 EWM      -0.076400
     13 C14          1.8650    -0.0680     0.4970 c3         1 EWM      -0.074400
     14 C15          3.1390     0.4450    -0.1620 c3         1 EWM      -0.074400
     15 C16          4.3990    -0.2480     0.3390 c3         1 EWM      -0.074400
     16 C17          5.6730     0.2720    -0.3160 c3         1 EWM      -0.074400
     17 C18          6.9360    -0.4100     0.1940 c3         1 EWM      -0.074400
     18 C19          8.2100     0.1180    -0.4540 c3         1 EWM      -0.075400
     19 C20          9.4740    -0.5570     0.0640 c3         1 EWM      -0.074400
     20 C21         10.7430    -0.0150    -0.5800 c3         1 EWM      -0.088100
     21 H1          -4.1780     0.9720    -0.8650 hn         1 EWM       0.313500
     22 H2          -5.6110     0.2360     1.6130 h1         1 EWM       0.120700
     23 H3          -7.4960     1.3440     0.7220 hc         1 EWM       0.075200
     24 H4          -6.2860     2.2950    -0.1420 hc         1 EWM       0.075200
     25 H5          -8.1880     0.8010    -1.5030 h1         1 EWM       0.062700
     26 H6          -6.5450     0.9410    -2.1480 h1         1 EWM       0.062700
     27 H7          -1.9780     0.7750    -0.9220 hc         1 EWM       0.055200
     28 H8          -1.7940     1.9370     0.3680 hc         1 EWM       0.055200
     29 H9          -0.5810     0.2410     1.7480 hc         1 EWM       0.058200
     30 H10         -0.7690    -0.9430     0.4710 hc         1 EWM       0.058200
     31 H11          0.5300     0.5210    -1.0840 hc         1 EWM       0.035200
     32 H12          0.7050     1.7160     0.1820 hc         1 EWM       0.035200
     33 H13          1.9440     0.0530     1.5830 hc         1 EWM       0.041200
     34 H14          1.7710    -1.1440     0.3180 hc         1 EWM       0.041200
     35 H15          3.0620     0.3190    -1.2480 hc         1 EWM       0.036200
     36 H16          3.2260     1.5240     0.0100 hc         1 EWM       0.036200
     37 H17          4.4740    -0.1220     1.4250 hc         1 EWM       0.038200
     38 H18          4.3150    -1.3260     0.1660 hc         1 EWM       0.038200
     39 H19          5.6020     0.1400    -1.4020 hc         1 EWM       0.036700
     40 H20          5.7520     1.3520    -0.1480 hc         1 EWM       0.036700
     41 H21          7.0030    -0.2820     1.2810 hc         1 EWM       0.037200
     42 H22          6.8610    -1.4900     0.0230 hc         1 EWM       0.037200
     43 H23          8.1470    -0.0130    -1.5400 hc         1 EWM       0.036700
     44 H24          8.2820     1.1980    -0.2850 hc         1 EWM       0.036700
     45 H25          9.5320    -0.4300     1.1490 hc         1 EWM       0.036700
     46 H26          9.4060    -1.6350    -0.1110 hc         1 EWM       0.036700
     47 H27         10.7320    -0.1630    -1.6620 hc         1 EWM       0.031367
     48 H28         10.8490     1.0570    -0.3990 hc         1 EWM       0.031367
     49 H29         11.6340    -0.5060    -0.1890 hc         1 EWM       0.031367
@<TRIPOS>BOND
     1     1     2 2   
     2     2     3 1   
     3     2    10 1   
     4     3     4 1   
     5     3    21 1   
     6     4     5 1   
     7     4     8 1   
     8     4    22 1   
     9     5     6 1   
    10     5    23 1   
    11     5    24 1   
    12     6     7 1   
    13     6    25 1   
    14     6    26 1   
    15     7     8 1   
    16     8     9 2   
    17    10    11 1   
    18    10    27 1   
    19    10    28 1   
    20    11    12 1   
    21    11    29 1   
    22    11    30 1   
    23    12    13 1   
    24    12    31 1   
    25    12    32 1   
    26    13    14 1   
    27    13    33 1   
    28    13    34 1   
    29    14    15 1   
    30    14    35 1   
    31    14    36 1   
    32    15    16 1   
    33    15    37 1   
    34    15    38 1   
    35    16    17 1   
    36    16    39 1   
    37    16    40 1   
    38    17    18 1   
    39    17    41 1   
    40    17    42 1   
    41    18    19 1   
    42    18    43 1   
    43    18    44 1   
    44    19    20 1   
    45    19    45 1   
    46    19    46 1   
    47    20    47 1   
    48    20    48 1   
    49    20    49 1   
@<TRIPOS>SUBSTRUCTURE
     1 EWM         1 TEMP              0 ****  ****    0 ROOT
