@<TRIPOS>MOLECULE
EWN
   49    52     1     0     0
SMALL
bcc


@<TRIPOS>ATOM
      1 C1           0.5800    -2.0090    -3.3790 c3         1 EWN      -0.090600
      2 C2           0.1630    -1.5780    -1.9760 c3         1 EWN      -0.058700
      3 C3          -1.2160    -2.1340    -1.6340 c3         1 EWN      -0.090600
      4 C8           3.6260    -0.5220     0.6080 ca         1 EWN       0.137100
      5 C9           4.9780    -0.2760     0.3880 ca         1 EWN      -0.198000
      6 C10          5.3460     0.8730    -0.2730 ca         1 EWN       0.158900
      7 C11          4.4190     1.7800    -0.7480 ca         1 EWN      -0.191000
      8 C12          3.0760     1.5220    -0.5310 ca         1 EWN      -0.065000
      9 C13          2.6570     0.3930     0.1700 ca         1 EWN      -0.040400
     10 C19         -2.7470    -0.3790     2.3330 ca         1 EWN      -0.124000
     11 C20         -3.6990    -0.0540     1.3840 ca         1 EWN       0.094100
     12 C21         -3.3260     0.6050     0.2120 ca         1 EWN       0.010600
     13 C22         -1.9990     0.9350    -0.0010 ca         1 EWN      -0.108000
     14 N23         -4.3140     0.8760    -0.7300 ns         1 EWN      -0.468100
     15 C24         -5.6340     0.8540    -0.4330 c          1 EWN       0.684500
     16 C4           1.2200    -2.0080    -0.9570 c3         1 EWN      -0.079400
     17 C5           1.0460    -1.3710     0.4200 c6         1 EWN       0.076700
     18 C6           1.9580    -1.9470     1.4880 c6         1 EWN       0.122400
     19 O7           3.3250    -1.6850     1.2100 os         1 EWN      -0.308900
     20 N14          1.2950     0.0710     0.3880 n          1 EWN      -0.377000
     21 O16          0.6370     2.2120     0.7450 o          1 EWN      -0.564100
     22 C17         -1.0360     0.5800     0.9370 ca         1 EWN      -0.133600
     23 C18         -1.4130    -0.0700     2.1070 ca         1 EWN      -0.107000
     24 C26         -5.9380     0.4890     1.0060 c6         1 EWN       0.049400
     25 O27         -4.9920    -0.4030     1.5670 os         1 EWN      -0.301900
     26 H1           0.6780    -3.0960    -3.4440 hc         1 EWN       0.035033
     27 H2          -0.1590    -1.7000    -4.1210 hc         1 EWN       0.035033
     28 H3           1.5380    -1.5710    -3.6620 hc         1 EWN       0.035033
     29 H4           0.1030    -0.4830    -1.9690 hc         1 EWN       0.049700
     30 H5          -1.2100    -3.2270    -1.6530 hc         1 EWN       0.035033
     31 H6          -1.5630    -1.8200    -0.6480 hc         1 EWN       0.035033
     32 H7          -1.9620    -1.7950    -2.3550 hc         1 EWN       0.035033
     33 H8           5.7200    -0.9860     0.7320 ha         1 EWN       0.165000
     34 H9           4.7310     2.6660    -1.2840 ha         1 EWN       0.155000
     35 H10          2.3510     2.2150    -0.9250 ha         1 EWN       0.156000
     36 H11         -3.0470    -0.8850     3.2410 ha         1 EWN       0.155000
     37 H12         -1.7150     1.4470    -0.9130 ha         1 EWN       0.150000
     38 H13         -4.0380     1.1900    -1.6510 hn         1 EWN       0.334500
     39 H14          1.1760    -3.0950    -0.8320 hc         1 EWN       0.057200
     40 H15          2.2170    -1.7870    -1.3500 hc         1 EWN       0.057200
     41 H16          0.0300    -1.5490     0.7610 h1         1 EWN       0.080700
     42 H17          1.6950    -1.5240     2.4630 h1         1 EWN       0.064200
     43 H18          1.8540    -3.0300     1.5470 h1         1 EWN       0.064200
     44 H19         -0.6730    -0.3340     2.8520 ha         1 EWN       0.143000
     45 H20         -5.9900     1.4170     1.5900 h1         1 EWN       0.088700
     46 H21         -6.9080     0.0010     1.0550 h1         1 EWN       0.088700
     47 F28          6.6530     1.1070    -0.4720 f          1 EWN      -0.139900
     48 C15          0.3730     1.0250     0.6940 c          1 EWN       0.691700
     49 O25         -6.5060     1.1470    -1.2250 o          1 EWN      -0.596500
@<TRIPOS>BOND
     1     1     2 1   
     2     1    26 1   
     3     1    27 1   
     4     1    28 1   
     5     2     3 1   
     6     2    16 1   
     7     2    29 1   
     8     3    30 1   
     9     3    31 1   
    10     3    32 1   
    11     4     5 ar  
    12     4     9 ar  
    13     4    19 1   
    14     5     6 ar  
    15     5    33 1   
    16     6     7 ar  
    17     6    47 1   
    18     7     8 ar  
    19     7    34 1   
    20     8     9 ar  
    21     8    35 1   
    22     9    20 1   
    23    10    11 ar  
    24    10    23 ar  
    25    10    36 1   
    26    11    12 ar  
    27    11    25 1   
    28    12    13 ar  
    29    12    14 1   
    30    13    22 ar  
    31    13    37 1   
    32    14    15 1   
    33    14    38 1   
    34    15    24 1   
    35    15    49 2   
    36    16    17 1   
    37    16    39 1   
    38    16    40 1   
    39    17    18 1   
    40    17    20 1   
    41    17    41 1   
    42    18    19 1   
    43    18    42 1   
    44    18    43 1   
    45    20    48 1   
    46    21    48 2   
    47    22    23 ar  
    48    22    48 1   
    49    23    44 1   
    50    24    25 1   
    51    24    45 1   
    52    24    46 1   
@<TRIPOS>SUBSTRUCTURE
     1 EWN         1 TEMP              0 ****  ****    0 ROOT
