@<TRIPOS>MOLECULE
EWN
   49    52     1     0     0
SMALL
No Charge or Current Charge


@<TRIPOS>ATOM
      1 C1           0.9400    -2.4330    -3.8060 c3         1 EWN      -0.090600
      2 C2           0.4300    -1.8170    -2.4830 c3         1 EWN      -0.058700
      3 C3          -1.0520    -2.1940    -2.2440 c3         1 EWN      -0.090600
      4 C8           3.6300    -0.5610     0.6820 ca         1 EWN       0.137100
      5 C9           4.9640    -0.1630     0.8380 ca         1 EWN      -0.180000
      6 C10          5.3290     1.1650     0.6010 ca         1 EWN       0.194000
      7 C11          4.3590     2.1030     0.2280 ca         1 EWN      -0.173000
      8 C12          3.0210     1.7070     0.0560 ca         1 EWN      -0.047000
      9 C13          2.6400     0.3500     0.2170 ca         1 EWN      -0.133000
     10 C19         -2.4880    -0.1420     2.3500 ca         1 EWN      -0.106000
     11 C20         -3.6630     0.2570     1.6990 ca         1 EWN       0.094100
     12 C21         -3.5960     0.8020     0.4000 ca         1 EWN      -0.082000
     13 C22         -2.3560     0.9540    -0.2420 ca         1 EWN      -0.090000
     14 N23         -4.8070     1.1290    -0.2490 ns         1 EWN      -0.142000
     15 C24         -6.0510     1.0180     0.3330 c          1 EWN       0.542000
     16 C4           1.3520    -2.2150    -1.2960 c3         1 EWN      -0.079400
     17 C5           1.0390    -1.5690     0.0970 c6         1 EWN       0.076700
     18 C6           1.9330    -2.2070     1.1850 c6         1 EWN       0.145600
     19 O7           3.3160    -1.8690     0.9750 os         1 EWN      -0.332100
     20 N14          1.2500    -0.0900     0.1130 n          1 EWN      -0.217400
     21 O16          0.2960     1.6020    -1.1580 o          1 EWN      -0.564100
     22 C17         -1.1640     0.5510     0.4040 ca         1 EWN      -0.133600
     23 C18         -1.2440     0.0140     1.7120 ca         1 EWN      -0.089000
     24 C26         -5.9840     0.9430     1.8710 c6         1 EWN       0.072600
     25 O27         -4.8870     0.0990     2.3240 os         1 EWN      -0.325100
     26 H1           0.9150    -3.5290    -3.7630 hc         1 EWN       0.035033
     27 H2           0.3180    -2.1090    -4.6500 hc         1 EWN       0.035033
     28 H3           1.9710    -2.1200    -4.0080 hc         1 EWN       0.035033
     29 H4           0.4820    -0.7300    -2.6080 hc         1 EWN       0.049700
     30 H5          -1.1590    -3.2740    -2.0850 hc         1 EWN       0.035033
     31 H6          -1.4630    -1.6780    -1.3700 hc         1 EWN       0.035033
     32 H7          -1.6650    -1.9140    -3.1090 hc         1 EWN       0.035033
     33 H8           5.7120    -0.8810     1.1620 ha         1 EWN       0.147000
     34 H9           4.6440     3.1410     0.0790 ha         1 EWN       0.137000
     35 H10          2.3020     2.4770    -0.2030 ha         1 EWN       0.138000
     36 H11         -2.5400    -0.5590     3.3520 ha         1 EWN       0.137000
     37 H12         -2.3190     1.3670    -1.2490 ha         1 EWN       0.132000
     38 H13         -4.7760     1.2400    -1.2550 hn         1 EWN       0.168000
     39 H14          1.3160    -3.3080    -1.1980 hc         1 EWN       0.057200
     40 H15          2.3860    -1.9790    -1.5750 hc         1 EWN       0.057200
     41 H16         -0.0010    -1.8110     0.3510 h1         1 EWN       0.080700
     42 H17          1.6280    -1.8320     2.1720 h1         1 EWN       0.064200
     43 H18          1.8230    -3.3010     1.1920 h1         1 EWN       0.064200
     44 H19         -0.3430    -0.2740     2.2500 ha         1 EWN       0.125000
     45 H20         -5.8300     1.9650     2.2400 h1         1 EWN       0.088700
     46 H21         -6.9380     0.5570     2.2520 h1         1 EWN       0.088700
     47 F28          6.6120     1.5510     0.7650 f          1 EWN      -0.175000
     48 C15          0.1660     0.7300    -0.3050 c          1 EWN       0.624700
     49 O25         -7.0890     0.9210    -0.3130 o          1 EWN      -0.521000
@<TRIPOS>BOND
     1     1     2 1   
     2     1    26 1   
     3     1    27 1   
     4     1    28 1   
     5     2     3 1   
     6     2    16 1   
     7     2    29 1   
     8     3    30 1   
     9     3    31 1   
    10     3    32 1   
    11     4     5 ar  
    12     4     9 ar  
    13     4    19 1   
    14     5     6 ar  
    15     5    33 1   
    16     6     7 ar  
    17     6    47 1   
    18     7     8 ar  
    19     7    34 1   
    20     8     9 ar  
    21     8    35 1   
    22     9    20 1   
    23    10    11 ar  
    24    10    23 ar  
    25    10    36 1   
    26    11    12 ar  
    27    11    25 1   
    28    12    13 ar  
    29    12    14 1   
    30    13    22 ar  
    31    13    37 1   
    32    14    15 1   
    33    14    38 1   
    34    15    24 1   
    35    15    49 2   
    36    16    17 1   
    37    16    39 1   
    38    16    40 1   
    39    17    18 1   
    40    17    20 1   
    41    17    41 1   
    42    18    19 1   
    43    18    42 1   
    44    18    43 1   
    45    20    48 1   
    46    21    48 2   
    47    22    23 ar  
    48    22    48 1   
    49    23    44 1   
    50    24    25 1   
    51    24    45 1   
    52    24    46 1   
@<TRIPOS>SUBSTRUCTURE
     1 EWN         1 TEMP              0 ****  ****    0 ROOT
