@<TRIPOS>MOLECULE
EWO
   28    30     1     0     0
SMALL
No Charge or Current Charge


@<TRIPOS>ATOM
      1 C10         18.8200    25.8420    85.5670 c6         1 EWO       0.159800
      2 C02         20.4780    21.1010    87.5950 ca         1 EWO       0.166000
      3 C03         21.1520    21.9610    86.7170 ca         1 EWO      -0.160500
      4 C04         20.4230    22.7570    85.8150 ca         1 EWO      -0.071000
      5 C05         19.0110    22.6950    85.7900 ca         1 EWO      -0.089300
      6 C06         18.3450    21.8270    86.6820 ca         1 EWO      -0.071000
      7 C07         19.0770    21.0320    87.5810 ca         1 EWO      -0.160500
      8 C08         18.1820    23.5520    84.8150 c6         1 EWO       0.207500
      9 C11         19.3070    26.2920    84.1560 c6         1 EWO      -0.038100
     10 C12         19.4240    25.1000    83.2360 cc         1 EWO      -0.198300
     11 C14         19.8130    23.7200    81.5420 cc         1 EWO       0.394400
     12 C16         18.9090    23.8610    83.5010 cd         1 EWO       0.206300
     13 N09         17.7360    24.8180    85.4860 n7         1 EWO      -0.862400
     14 N13         19.9970    25.0100    81.9890 na         1 EWO      -0.291500
     15 N15         19.1510    23.0020    82.4430 nd         1 EWO      -0.664000
     16 H102        19.6710    25.4300    86.1300 h1         1 EWO       0.059700
     17 H101        18.4640    26.7210    86.1240 h1         1 EWO       0.059700
     18 H031        22.2380    22.0110    86.7350 ha         1 EWO       0.128000
     19 H041        20.9590    23.4220    85.1420 ha         1 EWO       0.135000
     20 H061        17.2580    21.7740    86.6780 ha         1 EWO       0.135000
     21 H071        18.5610    20.3650    88.2670 ha         1 EWO       0.128000
     22 H081        17.2830    22.9700    84.5630 h1         1 EWO       0.078700
     23 H112        20.2650    26.8220    84.2480 hc         1 EWO       0.053200
     24 H111        18.5920    27.0160    83.7410 hc         1 EWO       0.053200
     25 H141        20.1710    23.3790    80.5780 h5         1 EWO       0.057100
     26 H1          16.9810    25.2210    84.9180 hn         1 EWO       0.418000
     27 H131        20.4670    25.7440    81.4730 hn         1 EWO       0.353000
     28 F01         21.1800    20.3380    88.4600 f          1 EWO      -0.185000
@<TRIPOS>BOND
     1     1     9 1   
     2     1    13 1   
     3     1    16 1   
     4     1    17 1   
     5     2     3 ar  
     6     2     7 ar  
     7     2    28 1   
     8     3     4 ar  
     9     3    18 1   
    10     4     5 ar  
    11     4    19 1   
    12     5     6 ar  
    13     5     8 1   
    14     6     7 ar  
    15     6    20 1   
    16     7    21 1   
    17     8    12 1   
    18     8    13 1   
    19     8    22 1   
    20     9    10 1   
    21     9    23 1   
    22     9    24 1   
    23    10    12 2   
    24    10    14 1   
    25    11    14 1   
    26    11    15 2   
    27    11    25 1   
    28    12    15 1   
    29    13    26 1   
    30    14    27 1   
@<TRIPOS>SUBSTRUCTURE
     1 EWO         1 TEMP              0 ****  ****    0 ROOT
