@<TRIPOS>MOLECULE
EWO
   28    30     1     0     0
SMALL
abcg2


@<TRIPOS>ATOM
      1 C10         18.2600    25.6480    85.5060 c6         1 EWO       0.159800
      2 C02         20.5330    21.0950    87.5430 ca         1 EWO       0.166000
      3 C03         20.8460    20.9560    86.2050 ca         1 EWO      -0.160500
      4 C04         20.1430    21.7070    85.2750 ca         1 EWO      -0.071000
      5 C05         19.1340    22.5880    85.6650 ca         1 EWO      -0.089300
      6 C06         18.8420    22.6900    87.0220 ca         1 EWO      -0.071000
      7 C07         19.5410    21.9530    87.9710 ca         1 EWO      -0.160500
      8 C08         18.3400    23.3660    84.6210 c6         1 EWO       0.207500
      9 C11         18.8250    26.3440    84.2600 c6         1 EWO      -0.038100
     10 C12         19.3990    25.2860    83.3940 cc         1 EWO      -0.198300
     11 C14         20.4360    24.1800    81.8150 cc         1 EWO       0.394400
     12 C16         19.2030    23.9430    83.5320 cd         1 EWO       0.206300
     13 N09         17.5350    24.4160    85.2350 n7         1 EWO      -0.862400
     14 N13         20.1880    25.4200    82.2890 na         1 EWO      -0.291500
     15 N15         19.8520    23.2590    82.5400 nd         1 EWO      -0.664000
     16 H102        19.0810    25.4170    86.1900 h1         1 EWO       0.059700
     17 H101        17.5940    26.3280    86.0390 h1         1 EWO       0.059700
     18 H031        21.6250    20.2740    85.8910 ha         1 EWO       0.128000
     19 H041        20.3890    21.6020    84.2270 ha         1 EWO       0.135000
     20 H061        18.0550    23.3560    87.3500 ha         1 EWO       0.135000
     21 H071        19.3110    22.0470    89.0240 ha         1 EWO       0.128000
     22 H081        17.6380    22.6570    84.1690 h1         1 EWO       0.078700
     23 H112        19.5740    27.0840    84.5530 hc         1 EWO       0.053200
     24 H111        18.0350    26.8900    83.7340 hc         1 EWO       0.053200
     25 H141        21.0450    24.0070    80.9410 h5         1 EWO       0.057100
     26 H1          16.7430    24.6140    84.6360 hn         1 EWO       0.418000
     27 H131        20.5310    26.2840    81.8970 hn         1 EWO       0.353000
     28 F01         21.2160    20.3710    88.4470 f          1 EWO      -0.185000
@<TRIPOS>BOND
     1     1     9 1   
     2     1    13 1   
     3     1    16 1   
     4     1    17 1   
     5     2     3 ar  
     6     2     7 ar  
     7     2    28 1   
     8     3     4 ar  
     9     3    18 1   
    10     4     5 ar  
    11     4    19 1   
    12     5     6 ar  
    13     5     8 1   
    14     6     7 ar  
    15     6    20 1   
    16     7    21 1   
    17     8    12 1   
    18     8    13 1   
    19     8    22 1   
    20     9    10 1   
    21     9    23 1   
    22     9    24 1   
    23    10    12 2   
    24    10    14 1   
    25    11    14 1   
    26    11    15 2   
    27    11    25 1   
    28    12    15 1   
    29    13    26 1   
    30    14    27 1   
@<TRIPOS>SUBSTRUCTURE
     1 EWO         1 TEMP              0 ****  ****    0 ROOT
