@<TRIPOS>MOLECULE
EWQ
   32    33     1     0     0
SMALL
No Charge or Current Charge


@<TRIPOS>ATOM
      1 C1          -0.9320    -1.6690    -0.0960 ca         1 EWQ      -0.145000
      2 C2           0.3360    -1.0460    -0.0700 ca         1 EWQ      -0.053800
      3 C3           0.4210     0.3720    -0.1330 ca         1 EWQ       0.038600
      4 C4          -0.7940     1.1280    -0.0240 ca         1 EWQ       0.146100
      5 C5          -2.0450     0.4740    -0.0510 ca         1 EWQ      -0.254000
      6 C6          -2.1110    -0.9250    -0.1120 ca         1 EWQ       0.151100
      7 C7           1.5360    -1.8940     0.0500 cc         1 EWQ       0.007600
      8 C8           2.7200    -1.2230     0.2620 cd         1 EWQ      -0.283200
      9 C9           2.8970     0.2330     0.2430 c          1 EWQ       0.554200
     10 N10          1.7390     0.9830    -0.0420 n          1 EWQ      -0.275000
     11 C11          1.9480     2.3970    -0.4550 c3         1 EWQ       0.092300
     12 O12          3.9960     0.7410     0.4250 o          1 EWQ      -0.560000
     13 C13          1.4940    -3.4030     0.0170 c3         1 EWQ      -0.060900
     14 O14         -0.7460     2.5060     0.1220 os         1 EWQ      -0.343100
     15 C15         -1.9160     3.3340     0.2610 c3         1 EWQ       0.150900
     16 O16         -3.3060    -1.6150    -0.1390 os         1 EWQ      -0.340100
     17 C17         -4.5830    -0.9520    -0.1490 c3         1 EWQ       0.149900
     18 H1          -1.0230    -2.7500    -0.0830 ha         1 EWQ       0.134000
     19 H5          -2.9640     1.0470    -0.0100 ha         1 EWQ       0.123000
     20 H8           3.6450    -1.7620     0.4240 ha         1 EWQ       0.207000
     21 H11          1.7670     3.0640     0.3960 h1         1 EWQ       0.052367
     22 H11A         2.9700     2.5590    -0.8190 h1         1 EWQ       0.052367
     23 H11B         1.2690     2.6520    -1.2780 h1         1 EWQ       0.052367
     24 H13          1.0020    -3.7620    -0.8950 hc         1 EWQ       0.051033
     25 H13A         2.5010    -3.8350     0.0350 hc         1 EWQ       0.051033
     26 H13B         0.9490    -3.7990     0.8810 hc         1 EWQ       0.051033
     27 H15         -2.5590     3.2530    -0.6250 h1         1 EWQ       0.043033
     28 H15A        -2.4950     3.0470     1.1480 h1         1 EWQ       0.043033
     29 H15B        -1.6240     4.3850     0.3720 h1         1 EWQ       0.043033
     30 H17         -4.7150    -0.3450     0.7550 h1         1 EWQ       0.040700
     31 H17A        -4.6780    -0.3020    -1.0280 h1         1 EWQ       0.040700
     32 H17B        -5.3940    -1.6900    -0.1840 h1         1 EWQ       0.040700
@<TRIPOS>BOND
     1     1     2 ar  
     2     1     6 ar  
     3     1    18 1   
     4     2     3 ar  
     5     2     7 1   
     6     3     4 ar  
     7     3    10 1   
     8     4     5 ar  
     9     4    14 1   
    10     5     6 ar  
    11     5    19 1   
    12     6    16 1   
    13     7     8 2   
    14     7    13 1   
    15     8     9 1   
    16     8    20 1   
    17     9    10 1   
    18     9    12 2   
    19    10    11 1   
    20    11    21 1   
    21    11    22 1   
    22    11    23 1   
    23    13    24 1   
    24    13    25 1   
    25    13    26 1   
    26    14    15 1   
    27    15    27 1   
    28    15    28 1   
    29    15    29 1   
    30    16    17 1   
    31    17    30 1   
    32    17    31 1   
    33    17    32 1   
@<TRIPOS>SUBSTRUCTURE
     1 EWQ         1 TEMP              0 ****  ****    0 ROOT
