@<TRIPOS>MOLECULE
EWQ
   32    33     1     0     0
SMALL
abcg2


@<TRIPOS>ATOM
      1 C1          -0.9390    -1.6710    -0.1050 ca         1 EWQ      -0.145000
      2 C2           0.3060    -1.0400    -0.0370 ca         1 EWQ      -0.053800
      3 C3           0.4090     0.3630    -0.0280 ca         1 EWQ       0.038600
      4 C4          -0.7950     1.1010     0.0630 ca         1 EWQ       0.146100
      5 C5          -2.0230     0.4630    -0.0290 ca         1 EWQ      -0.254000
      6 C6          -2.1000    -0.9270    -0.1380 ca         1 EWQ       0.151100
      7 C7           1.5170    -1.8230     0.0910 cc         1 EWQ       0.007600
      8 C8           2.6880    -1.1800     0.2580 cd         1 EWQ      -0.283200
      9 C9           2.8170     0.2590     0.1900 c          1 EWQ       0.554200
     10 N10          1.6650     0.9710    -0.0520 n          1 EWQ      -0.275000
     11 C11          1.8560     2.3430    -0.5250 c3         1 EWQ       0.092300
     12 O12          3.9070     0.8190     0.2800 o          1 EWQ      -0.560000
     13 C13          1.4560    -3.3170     0.0840 c3         1 EWQ      -0.060900
     14 O14         -0.6950     2.4220     0.2820 os         1 EWQ      -0.343100
     15 C15         -1.8650     3.2130     0.3400 c3         1 EWQ       0.150900
     16 O16         -3.2590    -1.6040    -0.2430 os         1 EWQ      -0.340100
     17 C17         -4.4750    -0.8840    -0.2200 c3         1 EWQ       0.149900
     18 H1          -1.0030    -2.7500    -0.1220 ha         1 EWQ       0.134000
     19 H5          -2.9260     1.0540     0.0170 ha         1 EWQ       0.123000
     20 H8           3.6070    -1.7340     0.4010 ha         1 EWQ       0.207000
     21 H11          1.7840     3.0750     0.2760 h1         1 EWQ       0.052367
     22 H11A         2.8450     2.4140    -0.9660 h1         1 EWQ       0.052367
     23 H11B         1.1270     2.5760    -1.2930 h1         1 EWQ       0.052367
     24 H13          1.0240    -3.6880    -0.8470 hc         1 EWQ       0.051033
     25 H13A         2.4510    -3.7440     0.1910 hc         1 EWQ       0.051033
     26 H13B         0.8370    -3.6950     0.8990 hc         1 EWQ       0.051033
     27 H15         -2.4410     3.1620    -0.5870 h1         1 EWQ       0.043033
     28 H15A        -2.5090     2.9280     1.1760 h1         1 EWQ       0.043033
     29 H15B        -1.5300     4.2360     0.4890 h1         1 EWQ       0.043033
     30 H17         -4.6120    -0.3410     0.7190 h1         1 EWQ       0.040700
     31 H17A        -4.5510    -0.1790    -1.0520 h1         1 EWQ       0.040700
     32 H17B        -5.2700    -1.6200    -0.3150 h1         1 EWQ       0.040700
@<TRIPOS>BOND
     1     1     2 ar  
     2     1     6 ar  
     3     1    18 1   
     4     2     3 ar  
     5     2     7 1   
     6     3     4 ar  
     7     3    10 1   
     8     4     5 ar  
     9     4    14 1   
    10     5     6 ar  
    11     5    19 1   
    12     6    16 1   
    13     7     8 2   
    14     7    13 1   
    15     8     9 1   
    16     8    20 1   
    17     9    10 1   
    18     9    12 2   
    19    10    11 1   
    20    11    21 1   
    21    11    22 1   
    22    11    23 1   
    23    13    24 1   
    24    13    25 1   
    25    13    26 1   
    26    14    15 1   
    27    15    27 1   
    28    15    28 1   
    29    15    29 1   
    30    16    17 1   
    31    17    30 1   
    32    17    31 1   
    33    17    32 1   
@<TRIPOS>SUBSTRUCTURE
     1 EWQ         1 TEMP              0 ****  ****    0 ROOT
