@<TRIPOS>MOLECULE
EWR
   59    61     1     0     0
SMALL
No Charge or Current Charge


@<TRIPOS>ATOM
      1 C07          8.0170     3.0630    -8.0890 c3         1 EWR       0.066600
      2 C08         10.0110     4.0660    -9.3480 cc         1 EWR      -0.137000
      3 C09          9.2830     2.0250   -10.0610 cc         1 EWR      -0.132300
      4 C10          8.5910     3.0210    -6.6590 c3         1 EWR       0.147600
      5 C11         10.8250     3.6600   -10.3660 cd         1 EWR      -0.149000
      6 C12         10.3720     2.4020   -10.8050 cd         1 EWR      -0.186000
      7 C13         10.1890     5.3500    -8.6680 ca         1 EWR      -0.012000
      8 C14          8.4810     0.7530   -10.1590 c3         1 EWR      -0.026800
      9 C16         11.3270     0.6970    -2.9700 ca         1 EWR      -0.073300
     10 C17         13.4130     1.0470    -1.5170 c3         1 EWR       0.033300
     11 C18          9.9430     1.4530    -5.3160 ca         1 EWR       0.110100
     12 C19          9.0970     6.2100    -8.4400 ca         1 EWR      -0.089000
     13 C20         11.4690     5.7460    -8.2370 ca         1 EWR      -0.089000
     14 C21         10.6580     1.9350    -3.0320 ca         1 EWR      -0.072500
     15 C22         11.2990    -0.1590    -4.0870 ca         1 EWR      -0.072500
     16 C23          9.9680     2.3150    -4.1980 ca         1 EWR      -0.177500
     17 C24         10.6100     0.2190    -5.2520 ca         1 EWR      -0.177500
     18 C25          9.2830     7.4360    -7.7770 ca         1 EWR      -0.112000
     19 C26         11.6570     6.9710    -7.5720 ca         1 EWR      -0.112000
     20 C27         10.5590     7.8230    -7.3350 ca         1 EWR      -0.091000
     21 C28         14.0460     0.7080    -0.1150 c          1 EWR       0.699000
     22 C30         16.1350     1.0690    -4.1080 c3         1 EWR      -0.088100
     23 N06          9.0520     3.0650    -9.1450 na         1 EWR       0.036000
     24 O02          9.2870     1.7720    -6.4860 os         1 EWR      -0.355100
     25 O03         14.2540     0.7050    -2.6560 os         1 EWR      -0.463000
     26 O04         15.0220    -0.0300    -0.0480 o          1 EWR      -0.723000
     27 O05         13.5610     1.2460     0.8720 o          1 EWR      -0.723000
     28 S01         10.7180     9.4030    -6.4930 ss         1 EWR      -0.180000
     29 H071         7.3970     3.9580    -8.2000 h1         1 EWR       0.062200
     30 H072         7.3550     2.2010    -8.2270 h1         1 EWR       0.062200
     31 H101         9.2690     3.8710    -6.5090 h1         1 EWR       0.043700
     32 H102         7.7670     3.1040    -5.9390 h1         1 EWR       0.043700
     33 H111        11.6680     4.2130   -10.7720 ha         1 EWR       0.128000
     34 H121        10.8170     1.8180   -11.6050 ha         1 EWR       0.127000
     35 H142         8.5130     0.1960    -9.2150 hc         1 EWR       0.045367
     36 H141         7.4320     0.9670   -10.3950 hc         1 EWR       0.045367
     37 H143         8.8750     0.0990   -10.9460 hc         1 EWR       0.045367
     38 H151        11.4350     0.4880    -0.8310 hc         1 EWR       0.059200
     39 H152        12.2670    -0.7870    -1.6920 hc         1 EWR       0.059200
     40 H171        13.1970     2.1240    -1.5250 h1         1 EWR       0.015700
     41 H191         8.1060     5.9440    -8.7940 ha         1 EWR       0.120500
     42 H201        12.3230     5.0940    -8.4070 ha         1 EWR       0.120500
     43 H211        10.6730     2.6050    -2.1750 ha         1 EWR       0.120000
     44 H221        11.8160    -1.1160    -4.0550 ha         1 EWR       0.120000
     45 H231         9.4630     3.2760    -4.2130 ha         1 EWR       0.105500
     46 H241        10.5950    -0.4460    -6.1120 ha         1 EWR       0.105500
     47 H251         8.4300     8.0890    -7.6100 ha         1 EWR       0.117000
     48 H261        12.6590     7.2370    -7.2510 ha         1 EWR       0.117000
     49 H292        16.0740     1.5190    -1.9910 h1         1 EWR       0.016200
     50 H291        15.0800     2.6000    -2.9990 h1         1 EWR       0.016200
     51 H303        17.0120     1.6990    -4.3000 hc         1 EWR       0.025367
     52 H302        16.4770     0.0350    -3.9790 hc         1 EWR       0.025367
     53 H301        15.4800     1.1160    -4.9870 hc         1 EWR       0.025367
     54 H313        12.6560    10.4800    -5.4670 h1         1 EWR       0.066033
     55 H312        12.7660     8.7010    -5.3470 h1         1 EWR       0.066033
     56 H311        13.1300     9.5240    -6.8990 h1         1 EWR       0.066033
     57 C31         12.4950     9.5370    -6.0040 c3         1 EWR       0.023900
     58 C29         15.3950     1.5580    -2.8520 c3         1 EWR       0.178600
     59 C15         12.0730     0.2920    -1.7010 c3         1 EWR      -0.022100
@<TRIPOS>BOND
     1     1     4 1   
     2     1    23 1   
     3     1    29 1   
     4     1    30 1   
     5     2     5 2   
     6     2     7 1   
     7     2    23 1   
     8     3     6 2   
     9     3     8 1   
    10     3    23 1   
    11     4    24 1   
    12     4    31 1   
    13     4    32 1   
    14     5     6 1   
    15     5    33 1   
    16     6    34 1   
    17     7    12 ar  
    18     7    13 ar  
    19     8    35 1   
    20     8    36 1   
    21     8    37 1   
    22     9    14 ar  
    23     9    15 ar  
    24     9    59 1   
    25    10    21 1   
    26    10    25 1   
    27    10    40 1   
    28    10    59 1   
    29    11    16 ar  
    30    11    17 ar  
    31    11    24 1   
    32    12    18 ar  
    33    12    41 1   
    34    13    19 ar  
    35    13    42 1   
    36    14    16 ar  
    37    14    43 1   
    38    15    17 ar  
    39    15    44 1   
    40    16    45 1   
    41    17    46 1   
    42    18    20 ar  
    43    18    47 1   
    44    19    20 ar  
    45    19    48 1   
    46    20    28 1   
    47    21    26 1   
    48    21    27 1   
    49    22    51 1   
    50    22    52 1   
    51    22    53 1   
    52    22    58 1   
    53    25    58 1   
    54    28    57 1   
    55    38    59 1   
    56    39    59 1   
    57    49    58 1   
    58    50    58 1   
    59    54    57 1   
    60    55    57 1   
    61    56    57 1   
@<TRIPOS>SUBSTRUCTURE
     1 EWR         1 TEMP              0 ****  ****    0 ROOT
