@<TRIPOS>MOLECULE
EWR
   59    61     1     0     0
SMALL
bcc


@<TRIPOS>ATOM
      1 C07          8.2760     3.2160    -8.1020 c3         1 EWR       0.037300
      2 C08         10.3230     4.1460    -9.2100 cc         1 EWR      -0.086300
      3 C09          9.7800     2.0230    -9.6920 cc         1 EWR      -0.081600
      4 C10          8.7390     3.1700    -6.6600 c3         1 EWR       0.124400
      5 C11         11.3320     3.6260    -9.9830 cd         1 EWR      -0.167000
      6 C12         10.9840     2.2900   -10.2940 cd         1 EWR      -0.204000
      7 C13         10.2070     5.4940    -8.6470 ca         1 EWR      -0.012000
      8 C14          8.9910     0.7610    -9.7040 c3         1 EWR      -0.026800
      9 C16         11.3910     1.0720    -2.9030 ca         1 EWR      -0.073300
     10 C17         13.6710     1.0200    -1.8080 c3         1 EWR       0.010100
     11 C18         10.0140     1.7150    -5.2730 ca         1 EWR       0.110100
     12 C19          9.0790     6.2930    -8.8530 ca         1 EWR      -0.107000
     13 C20         11.2550     6.0320    -7.9020 ca         1 EWR      -0.107000
     14 C21         10.7880     2.3100    -3.0770 ca         1 EWR      -0.090500
     15 C22         11.2770     0.1500    -3.9450 ca         1 EWR      -0.090500
     16 C23         10.1000     2.6420    -4.2390 ca         1 EWR      -0.195500
     17 C24         10.6020     0.4600    -5.1110 ca         1 EWR      -0.195500
     18 C25          8.9930     7.5620    -8.3130 ca         1 EWR      -0.130000
     19 C26         11.1840     7.3110    -7.3670 ca         1 EWR      -0.130000
     20 C27         10.0440     8.0860    -7.5570 ca         1 EWR       0.035900
     21 C28         14.3610     0.9300    -0.4220 c          1 EWR       0.909600
     22 C30         15.8230    -0.6150    -4.2920 c3         1 EWR      -0.088100
     23 N06          9.3740     3.1600    -9.0440 na         1 EWR      -0.036100
     24 O02          9.3870     1.9350    -6.4480 os         1 EWR      -0.331900
     25 O03         14.1560     0.1050    -2.7570 os         1 EWR      -0.416600
     26 O04         15.0090    -0.0980    -0.1600 o          1 EWR      -0.828300
     27 O05         14.1610     1.9140     0.3180 o          1 EWR      -0.828300
     28 S01          9.8230     9.7070    -6.9090 ss         1 EWR      -0.259000
     29 H071         7.6970     4.1280    -8.2430 h1         1 EWR       0.062200
     30 H072         7.5970     2.3900    -8.3080 h1         1 EWR       0.062200
     31 H101         9.4130     4.0080    -6.4590 h1         1 EWR       0.043700
     32 H102         7.8700     3.2760    -6.0000 h1         1 EWR       0.043700
     33 H111        12.2020     4.1700   -10.3190 ha         1 EWR       0.146000
     34 H121        11.5430     1.5970   -10.9050 ha         1 EWR       0.145000
     35 H142         8.8750     0.3310    -8.7080 hc         1 EWR       0.045367
     36 H141         7.9890     0.9000   -10.1170 hc         1 EWR       0.045367
     37 H143         9.5010     0.0250   -10.3230 hc         1 EWR       0.045367
     38 H151        11.8010     1.3890    -0.8360 hc         1 EWR       0.059200
     39 H152        12.0150    -0.2740    -1.3500 hc         1 EWR       0.059200
     40 H171        13.8000     2.0510    -2.1770 h1         1 EWR       0.015700
     41 H191         8.2590     5.9300    -9.4600 ha         1 EWR       0.138500
     42 H201        12.1400     5.4360    -7.7220 ha         1 EWR       0.138500
     43 H211        10.8490     3.0470    -2.2830 ha         1 EWR       0.138000
     44 H221        11.7170    -0.8340    -3.8420 ha         1 EWR       0.138000
     45 H231         9.6400     3.6190    -4.3120 ha         1 EWR       0.123500
     46 H241        10.5250    -0.2680    -5.9100 ha         1 EWR       0.123500
     47 H251         8.1030     8.1550    -8.4900 ha         1 EWR       0.135000
     48 H261        12.0230     7.6800    -6.7920 ha         1 EWR       0.135000
     49 H292        16.1700     0.5210    -2.5030 h1         1 EWR       0.016200
     50 H291        15.3670     1.4240    -3.7850 h1         1 EWR       0.016200
     51 H303        16.7910    -0.3620    -4.7260 hc         1 EWR       0.025367
     52 H302        15.9150    -1.5940    -3.8190 hc         1 EWR       0.025367
     53 H301        15.1020    -0.6950    -5.1060 hc         1 EWR       0.025367
     54 H313        11.2160    10.9930    -5.5280 h1         1 EWR       0.066033
     55 H312        11.4560     9.2800    -5.1680 h1         1 EWR       0.066033
     56 H311        12.2120    10.0110    -6.6090 h1         1 EWR       0.066033
     57 C31         11.3300    10.0050    -5.9700 c3         1 EWR      -0.024000
     58 C29         15.4110     0.4420    -3.2910 c3         1 EWR       0.155400
     59 C15         12.1680     0.7660    -1.6530 c3         1 EWR      -0.022100
@<TRIPOS>BOND
     1     1     4 1   
     2     1    23 1   
     3     1    29 1   
     4     1    30 1   
     5     2     5 2   
     6     2     7 1   
     7     2    23 1   
     8     3     6 2   
     9     3     8 1   
    10     3    23 1   
    11     4    24 1   
    12     4    31 1   
    13     4    32 1   
    14     5     6 1   
    15     5    33 1   
    16     6    34 1   
    17     7    12 ar  
    18     7    13 ar  
    19     8    35 1   
    20     8    36 1   
    21     8    37 1   
    22     9    14 ar  
    23     9    15 ar  
    24     9    59 1   
    25    10    21 1   
    26    10    25 1   
    27    10    40 1   
    28    10    59 1   
    29    11    16 ar  
    30    11    17 ar  
    31    11    24 1   
    32    12    18 ar  
    33    12    41 1   
    34    13    19 ar  
    35    13    42 1   
    36    14    16 ar  
    37    14    43 1   
    38    15    17 ar  
    39    15    44 1   
    40    16    45 1   
    41    17    46 1   
    42    18    20 ar  
    43    18    47 1   
    44    19    20 ar  
    45    19    48 1   
    46    20    28 1   
    47    21    26 1   
    48    21    27 1   
    49    22    51 1   
    50    22    52 1   
    51    22    53 1   
    52    22    58 1   
    53    25    58 1   
    54    28    57 1   
    55    38    59 1   
    56    39    59 1   
    57    49    58 1   
    58    50    58 1   
    59    54    57 1   
    60    55    57 1   
    61    56    57 1   
@<TRIPOS>SUBSTRUCTURE
     1 EWR         1 TEMP              0 ****  ****    0 ROOT
