@<TRIPOS>MOLECULE
EWS
   49    52     1     0     0
SMALL
No Charge or Current Charge


@<TRIPOS>ATOM
      1 CAC         -0.6930     2.5560     0.4050 c6         1 EWS       0.118700
      2 CAD         -1.9990     2.5140     1.2450 c6         1 EWS      -0.124400
      3 CAE         -1.0290     2.8690    -1.0800 c6         1 EWS      -0.118400
      4 CAF         -1.9860     1.8300    -1.7000 c6         1 EWS       0.105600
      5 CAH         -3.0060     1.4650     0.7200 c6         1 EWS       0.116300
      6 CAI         -4.3930     1.5210     1.4050 c3         1 EWS      -0.056100
      7 CAJ         -5.4030     0.5730     0.7670 ca         1 EWS      -0.151300
      8 CAK         -5.1690    -0.8160     0.7740 ca         1 EWS      -0.103500
      9 CAL         -6.5680     1.0780     0.1540 ca         1 EWS      -0.103500
     10 CAM         -7.4890     0.2000    -0.4450 ca         1 EWS      -0.090000
     11 CAN         -7.2490    -1.1840    -0.4350 ca         1 EWS       0.137000
     12 CAO         -6.0910    -1.6920     0.1740 ca         1 EWS      -0.090000
     13 CAQ          4.3820    -0.1190    -0.0830 ca         1 EWS      -0.026000
     14 CAR          5.5560    -0.8980    -0.1720 ca         1 EWS      -0.034900
     15 CAS          5.5210    -2.2890     0.0910 ca         1 EWS      -0.057000
     16 CAT          4.3060    -2.9150     0.4460 ca         1 EWS      -0.119000
     17 CAU          3.1570    -2.1180     0.5260 ca         1 EWS      -0.051200
     18 CAV          3.1920    -0.7740     0.2720 ca         1 EWS      -0.058800
     19 CAX          1.0060    -1.3740     0.8140 cc         1 EWS      -0.129100
     20 NAA          0.0320     1.2830     0.5160 ns         1 EWS      -0.536900
     21 NAG         -3.2280     1.7500    -0.7760 ny         1 EWS      -0.821000
     22 NAW          1.8640    -2.4940     0.8510 na         1 EWS      -0.195700
     23 OAB          2.1060     2.0330    -0.0330 o          1 EWS      -0.581100
     24 CBA          1.8310    -0.3060     0.4550 cd         1 EWS      -0.228400
     25 ClA         -8.4020    -2.2800    -1.1860 cl         1 EWS      -0.150000
     26 HAC         -0.0480     3.3570     0.8000 h1         1 EWS       0.106700
     27 HAD         -1.7560     2.3010     2.2950 hc         1 EWS       0.089200
     28 HAE         -2.4620     3.5100     1.2370 hc         1 EWS       0.089200
     29 HAF         -1.4820     3.8680    -1.1490 hc         1 EWS       0.098700
     30 HAG         -0.1050     2.9150    -1.6710 hc         1 EWS       0.098700
     31 HAI         -2.3190     2.1070    -2.7080 hx         1 EWS       0.100700
     32 HAH         -1.5350     0.8310    -1.7290 hx         1 EWS       0.100700
     33 HAJ         -2.6070     0.4470     0.7940 hx         1 EWS       0.096700
     34 HAL         -4.2800     1.2680     2.4660 hc         1 EWS       0.087700
     35 HAK         -4.7740     2.5500     1.3910 hc         1 EWS       0.087700
     36 HAM         -4.2760    -1.2200     1.2450 ha         1 EWS       0.117500
     37 HAN         -6.7640     2.1480     0.1400 ha         1 EWS       0.117500
     38 HAO         -8.3870     0.5900    -0.9170 ha         1 EWS       0.149500
     39 HAP         -5.9090    -2.7640     0.1810 ha         1 EWS       0.149500
     40 HAQ          4.4090     0.9480    -0.2840 ha         1 EWS       0.154000
     41 HAS          6.4320    -2.8780     0.0190 ha         1 EWS       0.140000
     42 HAT          4.2670    -3.9830     0.6500 ha         1 EWS       0.127000
     43 HAX         -0.0550    -1.4420     1.0350 h4         1 EWS       0.199000
     44 HAA         -0.4840     0.4580     0.7810 hn         1 EWS       0.308500
     45 HAZ         -3.7650     2.6360    -0.8690 hn         1 EWS       0.501500
     46 HAY         -3.8860     1.0320    -1.1490 hn         1 EWS       0.501500
     47 HAW          1.5790    -3.4410     1.0810 hn         1 EWS       0.362000
     48 CAZ          1.3760     1.1050     0.2840 c          1 EWS       0.644300
     49 BrA          7.2100    -0.0660    -0.6510 br         1 EWS      -0.078100
@<TRIPOS>BOND
     1     1     2 1   
     2     1     3 1   
     3     1    20 1   
     4     1    26 1   
     5     2     5 1   
     6     2    27 1   
     7     2    28 1   
     8     3     4 1   
     9     3    29 1   
    10     3    30 1   
    11     4    21 1   
    12     4    31 1   
    13     4    32 1   
    14     5     6 1   
    15     5    21 1   
    16     5    33 1   
    17     6     7 1   
    18     6    34 1   
    19     6    35 1   
    20     7     8 ar  
    21     7     9 ar  
    22     8    12 ar  
    23     8    36 1   
    24     9    10 ar  
    25     9    37 1   
    26    10    11 ar  
    27    10    38 1   
    28    11    12 ar  
    29    11    25 1   
    30    12    39 1   
    31    13    14 ar  
    32    13    18 ar  
    33    13    40 1   
    34    14    15 ar  
    35    14    49 1   
    36    15    16 ar  
    37    15    41 1   
    38    16    17 ar  
    39    16    42 1   
    40    17    18 ar  
    41    17    22 1   
    42    18    24 1   
    43    19    22 1   
    44    19    24 2   
    45    19    43 1   
    46    20    44 1   
    47    20    48 1   
    48    21    45 1   
    49    21    46 1   
    50    22    47 1   
    51    23    48 2   
    52    24    48 1   
@<TRIPOS>SUBSTRUCTURE
     1 EWS         1 TEMP              0 ****  ****    0 ROOT
