@<TRIPOS>MOLECULE
EWS
   49    52     1     0     0
SMALL
abcg2


@<TRIPOS>ATOM
      1 CAC         -0.6920     2.3930     0.3250 c6         1 EWS       0.118700
      2 CAD         -1.9680     2.3680     1.1620 c6         1 EWS      -0.124400
      3 CAE         -1.0370     2.7650    -1.1180 c6         1 EWS      -0.118400
      4 CAF         -2.0990     1.8580    -1.6970 c6         1 EWS       0.105600
      5 CAH         -3.0560     1.4790     0.5770 c6         1 EWS       0.116300
      6 CAI         -4.3500     1.5320     1.3820 c3         1 EWS      -0.056100
      7 CAJ         -5.4170     0.6230     0.8340 ca         1 EWS      -0.151300
      8 CAK         -5.3070    -0.7590     0.9800 ca         1 EWS      -0.103500
      9 CAL         -6.5150     1.1330     0.1480 ca         1 EWS      -0.103500
     10 CAM         -7.4840     0.2920    -0.3840 ca         1 EWS      -0.090000
     11 CAN         -7.3470    -1.0760    -0.2240 ca         1 EWS       0.137000
     12 CAO         -6.2630    -1.6130     0.4570 ca         1 EWS      -0.090000
     13 CAQ          4.3980    -0.0220     0.1650 ca         1 EWS      -0.026000
     14 CAR          5.5870    -0.7160     0.2370 ca         1 EWS      -0.034900
     15 CAS          5.6470    -2.1100     0.3790 ca         1 EWS      -0.057000
     16 CAT          4.4820    -2.8460     0.4540 ca         1 EWS      -0.119000
     17 CAU          3.2750    -2.1580     0.3840 ca         1 EWS      -0.051200
     18 CAV          3.2100    -0.7580     0.2380 ca         1 EWS      -0.058800
     19 CAX          1.1250    -1.5960     0.3400 cc         1 EWS      -0.129100
     20 NAA         -0.0300     1.1030     0.4060 ns         1 EWS      -0.536900
     21 NAG         -3.3180     1.8970    -0.8360 ny         1 EWS      -0.821000
     22 NAW          1.9910    -2.6270     0.4380 na         1 EWS      -0.195700
     23 OAB          1.9510     1.8580    -0.3710 o          1 EWS      -0.581100
     24 CBA          1.8170    -0.4130     0.2220 cd         1 EWS      -0.228400
     25 CLA         -8.5500    -2.1380    -0.8790 cl         1 EWS      -0.150000
     26 HAC         -0.0340     3.1610     0.7360 h1         1 EWS       0.106700
     27 HAD         -1.7560     2.0230     2.1770 hc         1 EWS       0.089200
     28 HAE         -2.3460     3.3890     1.2530 hc         1 EWS       0.089200
     29 HAF         -1.3850     3.8020    -1.1440 hc         1 EWS       0.098700
     30 HAG         -0.1550     2.7160    -1.7550 hc         1 EWS       0.098700
     31 HAI         -2.4010     2.1690    -2.6940 hx         1 EWS       0.100700
     32 HAH         -1.7780     0.8180    -1.7400 hx         1 EWS       0.100700
     33 HAJ         -2.7180     0.4430     0.5060 hx         1 EWS       0.096700
     34 HAL         -4.0980     1.2440     2.4050 hc         1 EWS       0.087700
     35 HAK         -4.7100     2.5630     1.4270 hc         1 EWS       0.087700
     36 HAM         -4.4660    -1.1830     1.5160 ha         1 EWS       0.117500
     37 HAN         -6.6290     2.2040     0.0290 ha         1 EWS       0.117500
     38 HAO         -8.3330     0.7050    -0.9110 ha         1 EWS       0.149500
     39 HAP         -6.1660    -2.6830     0.5820 ha         1 EWS       0.149500
     40 HAQ          4.3750     1.0520     0.0530 ha         1 EWS       0.154000
     41 HAS          6.6010    -2.6170     0.4320 ha         1 EWS       0.140000
     42 HAT          4.5160    -3.9220     0.5630 ha         1 EWS       0.127000
     43 HAX          0.0610    -1.7800     0.3400 h4         1 EWS       0.199000
     44 HAA         -0.4650     0.3850     0.9620 hn         1 EWS       0.308500
     45 HAZ         -3.7040     2.8440    -0.8490 hn         1 EWS       0.501500
     46 HAY         -4.0400     1.3000    -1.2440 hn         1 EWS       0.501500
     47 HAW          1.7250    -3.5960     0.5160 hn         1 EWS       0.362000
     48 CAZ          1.2680     0.9370     0.0610 c          1 EWS       0.644300
     49 BRA          7.2160     0.2450     0.1380 br         1 EWS      -0.078100
@<TRIPOS>BOND
     1     1     2 1   
     2     1     3 1   
     3     1    20 1   
     4     1    26 1   
     5     2     5 1   
     6     2    27 1   
     7     2    28 1   
     8     3     4 1   
     9     3    29 1   
    10     3    30 1   
    11     4    21 1   
    12     4    31 1   
    13     4    32 1   
    14     5     6 1   
    15     5    21 1   
    16     5    33 1   
    17     6     7 1   
    18     6    34 1   
    19     6    35 1   
    20     7     8 ar  
    21     7     9 ar  
    22     8    12 ar  
    23     8    36 1   
    24     9    10 ar  
    25     9    37 1   
    26    10    11 ar  
    27    10    38 1   
    28    11    12 ar  
    29    11    25 1   
    30    12    39 1   
    31    13    14 ar  
    32    13    18 ar  
    33    13    40 1   
    34    14    15 ar  
    35    14    49 1   
    36    15    16 ar  
    37    15    41 1   
    38    16    17 ar  
    39    16    42 1   
    40    17    18 ar  
    41    17    22 1   
    42    18    24 1   
    43    19    22 1   
    44    19    24 2   
    45    19    43 1   
    46    20    44 1   
    47    20    48 1   
    48    21    45 1   
    49    21    46 1   
    50    22    47 1   
    51    23    48 2   
    52    24    48 1   
@<TRIPOS>SUBSTRUCTURE
     1 EWS         1 TEMP              0 ****  ****    0 ROOT
