@<TRIPOS>MOLECULE
EWT
   33    35     1     0     0
SMALL
bcc


@<TRIPOS>ATOM
      1 CAG         -3.1770    -1.1060    -0.2220 ca         1 EWT      -0.015000
      2 CAD         -4.2930    -0.3010    -0.3190 ca         1 EWT      -0.083100
      3 SAC         -5.9410    -0.7670    -0.6330 ss         1 EWT      -0.153100
      4 CAB         -6.3870     0.9360    -0.5450 cc         1 EWT       0.660100
      5 NAA         -7.6650     1.2900    -0.6920 nv         1 EWT      -0.916800
      6 NAF         -5.4170     1.7640    -0.3070 nd         1 EWT      -0.645100
      7 CAE         -4.2310     1.0970    -0.1730 ca         1 EWT       0.172400
      8 CAJ         -2.9920     1.6830     0.0820 ca         1 EWT      -0.111000
      9 CAI         -1.8720     0.8810     0.1960 ca         1 EWT      -0.095000
     10 CAH         -1.9480    -0.5100     0.0540 ca         1 EWT      -0.173600
     11 CAR         -0.7550    -1.4010     0.1440 c          1 EWT       0.685700
     12 OAU         -0.7500    -2.5060    -0.3830 o          1 EWT      -0.601100
     13 NAS          0.2940    -0.9200     0.8400 ns         1 EWT      -0.573900
     14 CAT          1.5410    -1.6200     0.9950 c3         1 EWT       0.144300
     15 CAK          2.6730    -1.0190     0.1960 ca         1 EWT      -0.095300
     16 CAP          3.9700    -1.1010     0.6840 ca         1 EWT      -0.114000
     17 CAO          5.0350    -0.5980    -0.0470 ca         1 EWT       0.027400
     18 CL1          6.6300    -0.7150     0.5960 cl         1 EWT      -0.082400
     19 CAN          4.8130    -0.0000    -1.2810 ca         1 EWT       0.026400
     20 CL2          6.1220     0.6380    -2.2010 cl         1 EWT      -0.080400
     21 CAM          3.5200     0.0900    -1.7730 ca         1 EWT      -0.114000
     22 CAL          2.4600    -0.4150    -1.0390 ca         1 EWT      -0.104000
     23 H1          -3.2510    -2.1780    -0.3460 ha         1 EWT       0.163000
     24 H2          -8.3550     0.6420    -1.0320 hn         1 EWT       0.445800
     25 H3          -7.8880     2.2700    -0.7560 hn         1 EWT       0.445800
     26 H4          -2.9120     2.7570     0.1810 ha         1 EWT       0.152000
     27 H5          -0.9200     1.3670     0.3730 ha         1 EWT       0.130000
     28 H6           0.2000    -0.0500     1.3380 hn         1 EWT       0.318500
     29 H7           1.8100    -1.6390     2.0530 h1         1 EWT       0.069700
     30 H8           1.3940    -2.6570     0.6910 h1         1 EWT       0.069700
     31 H9           4.1610    -1.5570     1.6480 ha         1 EWT       0.148000
     32 H10          3.3420     0.5560    -2.7320 ha         1 EWT       0.151000
     33 H11          1.4600    -0.3230    -1.4420 ha         1 EWT       0.147000
@<TRIPOS>BOND
     1     1     2 ar  
     2     1    10 ar  
     3     1    23 1   
     4     2     3 1   
     5     2     7 ar  
     6     3     4 1   
     7     4     5 1   
     8     4     6 2   
     9     5    24 1   
    10     5    25 1   
    11     6     7 1   
    12     7     8 ar  
    13     8     9 ar  
    14     8    26 1   
    15     9    10 ar  
    16     9    27 1   
    17    10    11 1   
    18    11    12 2   
    19    11    13 1   
    20    13    14 1   
    21    13    28 1   
    22    14    15 1   
    23    14    29 1   
    24    14    30 1   
    25    15    16 ar  
    26    15    22 ar  
    27    16    17 ar  
    28    16    31 1   
    29    17    18 1   
    30    17    19 ar  
    31    19    20 1   
    32    19    21 ar  
    33    21    22 ar  
    34    21    32 1   
    35    22    33 1   
@<TRIPOS>SUBSTRUCTURE
     1 EWT         1 TEMP              0 ****  ****    0 ROOT
