@<TRIPOS>MOLECULE
EWT
   33    35     1     0     0
SMALL
No Charge or Current Charge


@<TRIPOS>ATOM
      1 CAG         -3.4340    -1.1380     0.2630 ca         1 EWT       0.003000
      2 CAD         -4.4810    -0.2090     0.1670 ca         1 EWT      -0.210000
      3 SAC         -6.1880    -0.5600     0.3880 ss         1 EWT      -0.026200
      4 CAB         -6.4210     1.1710     0.0600 cc         1 EWT       0.660100
      5 NAA         -7.6280     1.7560     0.0400 nv         1 EWT      -1.027200
      6 NAF         -5.3780     1.9430    -0.1920 nd         1 EWT      -0.645100
      7 CAE         -4.2570     1.1220    -0.1240 ca         1 EWT       0.172400
      8 CAJ         -2.9470     1.5740    -0.3320 ca         1 EWT      -0.093000
      9 CAI         -1.8720     0.6670    -0.2430 ca         1 EWT      -0.077000
     10 CAH         -2.1030    -0.7040     0.0570 ca         1 EWT      -0.173600
     11 CAR         -0.9780    -1.7110     0.1610 c          1 EWT       0.618700
     12 OAU         -1.1780    -2.8900     0.4190 o          1 EWT      -0.601100
     13 NAS          0.2970    -1.2380    -0.0480 ns         1 EWT      -0.506900
     14 CAT          1.5020    -2.0610     0.0120 c3         1 EWT       0.144300
     15 CAK          2.7450    -1.2250    -0.2510 ca         1 EWT      -0.095300
     16 CAP          3.4010    -0.5750     0.8130 ca         1 EWT      -0.096000
     17 CAO          4.5460     0.2040     0.5730 ca         1 EWT       0.119000
     18 Cl1          5.3390     1.0010     1.9320 cl         1 EWT      -0.174000
     19 CAN          5.0430     0.3380    -0.7410 ca         1 EWT       0.118000
     20 Cl2          6.4770     1.3080    -1.0790 cl         1 EWT      -0.172000
     21 CAM          4.3880    -0.3070    -1.8040 ca         1 EWT      -0.096000
     22 CAL          3.2430    -1.0860    -1.5610 ca         1 EWT      -0.086000
     23 H1          -3.6540    -2.1800     0.4930 ha         1 EWT       0.145000
     24 H2          -8.4280     1.1530    -0.1130 hn         1 EWT       0.501000
     25 H3          -7.6600     2.6650    -0.4060 hn         1 EWT       0.501000
     26 H4          -2.7640     2.6210    -0.5610 ha         1 EWT       0.134000
     27 H5          -0.8680     1.0480    -0.4090 ha         1 EWT       0.112000
     28 H6           0.3960    -0.2540    -0.2580 hn         1 EWT       0.318500
     29 H7           1.5690    -2.5270     1.0050 h1         1 EWT       0.069700
     30 H8           1.4260    -2.8640    -0.7330 h1         1 EWT       0.069700
     31 H9           3.0230    -0.6710     1.8280 ha         1 EWT       0.130000
     32 H10          4.7690    -0.2030    -2.8170 ha         1 EWT       0.133000
     33 H11          2.7420    -1.5790    -2.3920 ha         1 EWT       0.129000
@<TRIPOS>BOND
     1     1     2 ar  
     2     1    10 ar  
     3     1    23 1   
     4     2     3 1   
     5     2     7 ar  
     6     3     4 1   
     7     4     5 1   
     8     4     6 2   
     9     5    24 1   
    10     5    25 1   
    11     6     7 1   
    12     7     8 ar  
    13     8     9 ar  
    14     8    26 1   
    15     9    10 ar  
    16     9    27 1   
    17    10    11 1   
    18    11    12 2   
    19    11    13 1   
    20    13    14 1   
    21    13    28 1   
    22    14    15 1   
    23    14    29 1   
    24    14    30 1   
    25    15    16 ar  
    26    15    22 ar  
    27    16    17 ar  
    28    16    31 1   
    29    17    18 1   
    30    17    19 ar  
    31    19    20 1   
    32    19    21 ar  
    33    21    22 ar  
    34    21    32 1   
    35    22    33 1   
@<TRIPOS>SUBSTRUCTURE
     1 EWT         1 TEMP              0 ****  ****    0 ROOT
