@<TRIPOS>MOLECULE
EWU
   40    42     1     0     0
SMALL
No Charge or Current Charge


@<TRIPOS>ATOM
      1 O           43.1670    18.7300   -38.4950 o          1 EWU      -0.564000
      2 C4          42.6170    17.6500   -38.6230 c          1 EWU       0.595000
      3 N3          41.3750    17.3630   -39.2120 n          1 EWU      -0.371300
      4 C8          40.4860    18.3660   -39.8160 c3         1 EWU       0.171300
      5 C9          40.5030    18.3320   -41.3380 ca         1 EWU      -0.119300
      6 C10         41.5810    18.9000   -42.0450 ca         1 EWU      -0.085500
      7 C11         41.6050    18.8630   -43.4500 ca         1 EWU      -0.117500
      8 C12         40.5520    18.2570   -44.1570 ca         1 EWU      -0.099000
      9 C14         39.4750    17.6870   -43.4560 ca         1 EWU      -0.117500
     10 C13         39.4510    17.7230   -42.0510 ca         1 EWU      -0.085500
     11 C1          41.1090    15.9690   -39.1490 ca         1 EWU       0.244900
     12 N           40.0400    15.3000   -39.5930 nb         1 EWU      -0.297000
     13 C3          40.0790    13.9560   -39.3730 ca         1 EWU       0.406300
     14 N1          41.0960    13.2810   -38.7670 nb         1 EWU      -0.281000
     15 C2          42.1500    13.9950   -38.3360 ca         1 EWU       0.433900
     16 N4          43.1580    13.3110   -37.7380 nv         1 EWU      -1.059900
     17 C           42.1740    15.3760   -38.5210 ca         1 EWU      -0.224400
     18 N2          43.0750    16.4230   -38.2150 ns         1 EWU      -0.484600
     19 O1          39.0290    13.1800   -39.8150 os         1 EWU      -0.421300
     20 C5          37.7450    13.7480   -40.1770 c3         1 EWU       0.177600
     21 C6          37.0080    14.2570   -38.9100 c3         1 EWU       0.125600
     22 O2          36.6360    13.1260   -38.0970 os         1 EWU      -0.442000
     23 C7          35.9490    13.4670   -36.8810 c3         1 EWU       0.144900
     24 H1          40.7820    19.3660   -39.4730 h1         1 EWU       0.073200
     25 H2          39.4640    18.1920   -39.4530 h1         1 EWU       0.073200
     26 H3          42.4020    19.3680   -41.5050 ha         1 EWU       0.121000
     27 H4          42.4390    19.3030   -43.9920 ha         1 EWU       0.113000
     28 H5          40.5710    18.2280   -45.2440 ha         1 EWU       0.112000
     29 H6          38.6610    17.2150   -44.0010 ha         1 EWU       0.113000
     30 H7          38.6150    17.2760   -41.5170 ha         1 EWU       0.121000
     31 H8          43.1620    12.2970   -37.8270 hn         1 EWU       0.490500
     32 H9          44.0660    13.7580   -37.6520 hn         1 EWU       0.490500
     33 H10         43.9570    16.3170   -37.7190 hn         1 EWU       0.466000
     34 H11         37.8650    14.5730   -40.8910 h1         1 EWU       0.070700
     35 H12         37.1180    12.9880   -40.6620 h1         1 EWU       0.070700
     36 H13         37.6510    14.9480   -38.3500 h1         1 EWU       0.035200
     37 H14         36.1130    14.8100   -39.2230 h1         1 EWU       0.035200
     38 H15         35.6980    12.5590   -36.3170 h1         1 EWU       0.028700
     39 H16         36.5770    14.1020   -36.2430 h1         1 EWU       0.028700
     40 H17         35.0160    14.0040   -37.0970 h1         1 EWU       0.028700
@<TRIPOS>BOND
     1     1     2 2   
     2     2     3 1   
     3     2    18 1   
     4     3     4 1   
     5     3    11 1   
     6     4     5 1   
     7     4    24 1   
     8     4    25 1   
     9     5     6 ar  
    10     5    10 ar  
    11     6     7 ar  
    12     6    26 1   
    13     7     8 ar  
    14     7    27 1   
    15     8     9 ar  
    16     8    28 1   
    17     9    10 ar  
    18     9    29 1   
    19    10    30 1   
    20    11    12 ar  
    21    11    17 ar  
    22    12    13 ar  
    23    13    14 ar  
    24    13    19 1   
    25    14    15 ar  
    26    15    16 1   
    27    15    17 ar  
    28    16    31 1   
    29    16    32 1   
    30    17    18 1   
    31    18    33 1   
    32    19    20 1   
    33    20    21 1   
    34    20    34 1   
    35    20    35 1   
    36    21    22 1   
    37    21    36 1   
    38    21    37 1   
    39    22    23 1   
    40    23    38 1   
    41    23    39 1   
    42    23    40 1   
@<TRIPOS>SUBSTRUCTURE
     1 EWU         1 TEMP              0 ****  ****    0 ROOT
