@<TRIPOS>MOLECULE
EWU
   40    42     1     0     0
SMALL
abcg2


@<TRIPOS>ATOM
      1 O           43.1160    18.6680   -38.7210 o          1 EWU      -0.564000
      2 C4          42.6270    17.5540   -38.7520 c          1 EWU       0.595000
      3 N3          41.3490    17.2320   -39.1910 n          1 EWU      -0.371300
      4 C8          40.3910    18.1820   -39.7160 c3         1 EWU       0.171300
      5 C9          40.3950    18.2250   -41.2220 ca         1 EWU      -0.119300
      6 C10         41.3910    18.9220   -41.9040 ca         1 EWU      -0.085500
      7 C11         41.4080    18.9460   -43.2910 ca         1 EWU      -0.117500
      8 C12         40.4280    18.2760   -44.0120 ca         1 EWU      -0.099000
      9 C14         39.4310    17.5810   -43.3390 ca         1 EWU      -0.117500
     10 C13         39.4180    17.5560   -41.9500 ca         1 EWU      -0.085500
     11 C1          41.1540    15.8840   -39.0930 ca         1 EWU       0.244900
     12 N           40.0580    15.2210   -39.4230 nb         1 EWU      -0.297000
     13 C3          40.1660    13.9220   -39.1990 ca         1 EWU       0.406300
     14 N1          41.2050    13.2670   -38.7060 nb         1 EWU      -0.281000
     15 C2          42.3070    13.9510   -38.3760 ca         1 EWU       0.433900
     16 N4          43.3400    13.2740   -37.8420 nv         1 EWU      -1.059900
     17 C           42.3050    15.3310   -38.5720 ca         1 EWU      -0.224400
     18 N2          43.1970    16.3730   -38.3730 ns         1 EWU      -0.484600
     19 O1          39.1410    13.1280   -39.5020 os         1 EWU      -0.421300
     20 C5          37.9610    13.6960   -40.0620 c3         1 EWU       0.177600
     21 C6          37.0550    14.3260   -39.0300 c3         1 EWU       0.125600
     22 O2          36.6570    13.3500   -38.1030 os         1 EWU      -0.442000
     23 C7          35.7990    13.8640   -37.1170 c3         1 EWU       0.144900
     24 H1          40.6350    19.1580   -39.2980 h1         1 EWU       0.073200
     25 H2          39.4050    17.9030   -39.3430 h1         1 EWU       0.073200
     26 H3          42.1570    19.4460   -41.3450 ha         1 EWU       0.121000
     27 H4          42.1850    19.4920   -43.8100 ha         1 EWU       0.113000
     28 H5          40.4390    18.2980   -45.0940 ha         1 EWU       0.112000
     29 H6          38.6630    17.0580   -43.8940 ha         1 EWU       0.113000
     30 H7          38.6420    17.0110   -41.4280 ha         1 EWU       0.121000
     31 H8          43.3240    12.2690   -37.9050 hn         1 EWU       0.490500
     32 H9          44.2530    13.6930   -37.8030 hn         1 EWU       0.490500
     33 H10         44.1230    16.3170   -37.9800 hn         1 EWU       0.466000
     34 H11         38.2030    14.4350   -40.8270 h1         1 EWU       0.070700
     35 H12         37.4520    12.8620   -40.5460 h1         1 EWU       0.070700
     36 H13         37.5590    15.1650   -38.5330 h1         1 EWU       0.035200
     37 H14         36.1900    14.7450   -39.5650 h1         1 EWU       0.035200
     38 H15         35.5350    13.0510   -36.4420 h1         1 EWU       0.028700
     39 H16         36.2750    14.6590   -36.5300 h1         1 EWU       0.028700
     40 H17         34.8760    14.2720   -37.5450 h1         1 EWU       0.028700
@<TRIPOS>BOND
     1     1     2 2   
     2     2     3 1   
     3     2    18 1   
     4     3     4 1   
     5     3    11 1   
     6     4     5 1   
     7     4    24 1   
     8     4    25 1   
     9     5     6 ar  
    10     5    10 ar  
    11     6     7 ar  
    12     6    26 1   
    13     7     8 ar  
    14     7    27 1   
    15     8     9 ar  
    16     8    28 1   
    17     9    10 ar  
    18     9    29 1   
    19    10    30 1   
    20    11    12 ar  
    21    11    17 ar  
    22    12    13 ar  
    23    13    14 ar  
    24    13    19 1   
    25    14    15 ar  
    26    15    16 1   
    27    15    17 ar  
    28    16    31 1   
    29    16    32 1   
    30    17    18 1   
    31    18    33 1   
    32    19    20 1   
    33    20    21 1   
    34    20    34 1   
    35    20    35 1   
    36    21    22 1   
    37    21    36 1   
    38    21    37 1   
    39    22    23 1   
    40    23    38 1   
    41    23    39 1   
    42    23    40 1   
@<TRIPOS>SUBSTRUCTURE
     1 EWU         1 TEMP              0 ****  ****    0 ROOT
