@<TRIPOS>MOLECULE
EWV
   43    47     1     0     0
SMALL
No Charge or Current Charge


@<TRIPOS>ATOM
      1 C13         -0.6970    -1.0500    -0.0790 ca         1 EWV      -0.094000
      2 C15          1.5140     0.1280    -0.0320 ca         1 EWV      -0.101000
      3 C16          2.2210     1.3540     0.0720 ca         1 EWV      -0.048300
      4 C12         -2.8660    -2.1970    -0.0500 ca         1 EWV      -0.109000
      5 C10         -4.8890    -0.8830    -0.0140 ca         1 EWV       0.066100
      6 C5           1.4690     2.6800     0.1380 c6         1 EWV      -0.051100
      7 C6           0.1270     2.5890    -0.5990 c6         1 EWV       0.039600
      8 C3           4.3650     0.1800     0.1250 ca         1 EWV       0.173100
      9 O2           5.7500     0.1720     0.2010 os         1 EWV      -0.298100
     10 CB           6.5270     1.3770     0.3110 c3         1 EWV       0.136900
     11 C4           3.6250     1.3780     0.1540 ca         1 EWV      -0.176000
     12 N7          -0.6010     1.3790    -0.1740 na         1 EWV       0.051300
     13 C8          -1.9950     1.4260    -0.0930 ca         1 EWV       0.067700
     14 C17         -2.7540     0.2480    -0.0670 ca         1 EWV      -0.089000
     15 C9          -4.1560     0.2700    -0.0340 ca         1 EWV       0.091100
     16 O3          -4.9380     1.3810    -0.0300 os         1 EWV      -0.333100
     17 CC          -6.2980     0.8220     0.0550 c5         1 EWV       0.374600
     18 O4          -6.2260    -0.6480     0.0050 os         1 EWV      -0.315100
     19 C11         -4.2770    -2.1430    -0.0240 ca         1 EWV      -0.009000
     20 C18         -2.1030    -1.0030    -0.0730 ca         1 EWV       0.022000
     21 C14          0.0810     0.1420    -0.0950 ca         1 EWV       0.002000
     22 C1           2.2730    -1.0730    -0.0570 ca         1 EWV      -0.141000
     23 C2           3.6860    -1.0510     0.0180 ca         1 EWV       0.127100
     24 O1           4.4410    -2.2150    -0.0090 os         1 EWV      -0.303100
     25 CA           3.8560    -3.5260    -0.1120 c3         1 EWV       0.138900
     26 H13         -0.2400    -2.0310    -0.0400 ha         1 EWV       0.162000
     27 H12         -2.3700    -3.1660    -0.0520 ha         1 EWV       0.150000
     28 H71          1.2950     2.9430     1.1900 hc         1 EWV       0.088200
     29 H72          2.0690     3.4940    -0.2930 hc         1 EWV       0.088200
     30 H61         -0.4710     3.4900    -0.4030 h1         1 EWV       0.092200
     31 H62          0.3020     2.5270    -1.6830 h1         1 EWV       0.092200
     32 HB3          6.2670     1.9290     1.2230 h1         1 EWV       0.054367
     33 HB2          7.5970     1.1360     0.3550 h1         1 EWV       0.054367
     34 HB1          6.3620     2.0290    -0.5560 h1         1 EWV       0.054367
     35 H4           4.1250     2.3370     0.2440 ha         1 EWV       0.137000
     36 H8          -2.4720     2.4060    -0.0870 h4         1 EWV       0.181000
     37 HC2         -6.7550     1.1280     1.0030 h2         1 EWV       0.092200
     38 HC1         -6.9000     1.1900    -0.7840 h2         1 EWV       0.092200
     39 H11         -4.8760    -3.0510    -0.0090 ha         1 EWV       0.164000
     40 H1           1.7850    -2.0310    -0.1490 ha         1 EWV       0.128000
     41 HA2          4.6410    -4.2920    -0.1140 h1         1 EWV       0.049700
     42 HA1          3.1900    -3.7240     0.7370 h1         1 EWV       0.049700
     43 HA3          3.2830    -3.6260    -1.0430 h1         1 EWV       0.049700
@<TRIPOS>BOND
     1     1    20 ar  
     2     1    21 ar  
     3     1    26 1   
     4     2     3 ar  
     5     2    21 1   
     6     2    22 ar  
     7     3     6 1   
     8     3    11 ar  
     9     4    19 ar  
    10     4    20 ar  
    11     4    27 1   
    12     5    15 ar  
    13     5    18 1   
    14     5    19 ar  
    15     6     7 1   
    16     6    28 1   
    17     6    29 1   
    18     7    12 1   
    19     7    30 1   
    20     7    31 1   
    21     8     9 1   
    22     8    11 ar  
    23     8    23 ar  
    24     9    10 1   
    25    10    32 1   
    26    10    33 1   
    27    10    34 1   
    28    11    35 1   
    29    12    13 2   
    30    12    21 1   
    31    13    14 ar  
    32    13    36 1   
    33    14    15 ar  
    34    14    20 ar  
    35    15    16 1   
    36    16    17 1   
    37    17    18 1   
    38    17    37 1   
    39    17    38 1   
    40    19    39 1   
    41    22    23 ar  
    42    22    40 1   
    43    23    24 1   
    44    24    25 1   
    45    25    41 1   
    46    25    42 1   
    47    25    43 1   
@<TRIPOS>SUBSTRUCTURE
     1 EWV         1 TEMP              0 ****  ****    0 ROOT
