@<TRIPOS>MOLECULE
EWV
   43    47     1     0     0
SMALL
abcg2


@<TRIPOS>ATOM
      1 C13         -0.6670    -1.0080     0.2210 ca         1 EWV      -0.094000
      2 C15          1.5390     0.1350    -0.0490 ca         1 EWV      -0.101000
      3 C16          2.2010     1.3350     0.1710 ca         1 EWV      -0.048300
      4 C12         -2.8520    -2.1240     0.5010 ca         1 EWV      -0.109000
      5 C10         -4.8290    -0.8380     0.2000 ca         1 EWV       0.066100
      6 C5           1.3870     2.5870     0.2900 c6         1 EWV      -0.051100
      7 C6           0.2030     2.4890    -0.6420 c6         1 EWV       0.039600
      8 C3           4.3240     0.1830     0.1310 ca         1 EWV       0.173100
      9 O2           5.6560     0.1030     0.2040 os         1 EWV      -0.298100
     10 CB           6.3900     1.2910     0.4420 c3         1 EWV       0.136900
     11 C4           3.5900     1.3490     0.2640 ca         1 EWV      -0.176000
     12 N7          -0.5900     1.2860    -0.3240 na         1 EWV       0.051300
     13 C8          -1.9040     1.3670    -0.3360 ca         1 EWV       0.067700
     14 C17         -2.7040     0.2560    -0.0790 ca         1 EWV      -0.089000
     15 C9          -4.1000     0.2850    -0.0760 ca         1 EWV       0.091100
     16 O3          -4.9080     1.3290    -0.3040 os         1 EWV      -0.333100
     17 CC          -6.2410     0.8060    -0.2910 c5         1 EWV       0.374600
     18 O4          -6.1450    -0.5420     0.1550 os         1 EWV      -0.315100
     19 C11         -4.2310    -2.0600     0.4940 ca         1 EWV      -0.009000
     20 C18         -2.0740    -0.9900     0.2160 ca         1 EWV       0.022000
     21 C14          0.0770     0.1060    -0.0570 ca         1 EWV       0.002000
     22 C1           2.2760    -1.0480    -0.2080 ca         1 EWV      -0.141000
     23 C2           3.6520    -1.0360    -0.1230 ca         1 EWV       0.127100
     24 O1           4.4440    -2.1100    -0.2770 os         1 EWV      -0.303100
     25 CA           3.8340    -3.3510    -0.5710 c3         1 EWV       0.138900
     26 H13         -0.1610    -1.9280     0.4790 ha         1 EWV       0.162000
     27 H12         -2.3610    -3.0600     0.7290 ha         1 EWV       0.150000
     28 H71          1.0470     2.7440     1.3190 hc         1 EWV       0.088200
     29 H72          1.9730     3.4620     0.0110 hc         1 EWV       0.088200
     30 H61         -0.4530     3.3500    -0.5570 h1         1 EWV       0.092200
     31 H62          0.5310     2.4000    -1.6790 h1         1 EWV       0.092200
     32 HB3          6.1270     1.7460     1.3990 h1         1 EWV       0.054367
     33 HB2          7.4380     1.0040     0.4630 h1         1 EWV       0.054367
     34 HB1          6.2390     2.0260    -0.3530 h1         1 EWV       0.054367
     35 H4           4.0870     2.2940     0.4380 ha         1 EWV       0.137000
     36 H8          -2.3280     2.3360    -0.5580 h4         1 EWV       0.181000
     37 HC2         -6.8530     1.3850     0.3990 h2         1 EWV       0.092200
     38 HC1         -6.6540     0.8380    -1.3030 h2         1 EWV       0.092200
     39 H11         -4.8310    -2.9320     0.7170 ha         1 EWV       0.164000
     40 H1           1.7600    -1.9720    -0.4290 ha         1 EWV       0.128000
     41 HA2          4.6400    -4.0730    -0.6740 h1         1 EWV       0.049700
     42 HA1          3.1680    -3.6790     0.2320 h1         1 EWV       0.049700
     43 HA3          3.2710    -3.3160    -1.5070 h1         1 EWV       0.049700
@<TRIPOS>BOND
     1     1    20 ar  
     2     1    21 ar  
     3     1    26 1   
     4     2     3 ar  
     5     2    21 1   
     6     2    22 ar  
     7     3     6 1   
     8     3    11 ar  
     9     4    19 ar  
    10     4    20 ar  
    11     4    27 1   
    12     5    15 ar  
    13     5    18 1   
    14     5    19 ar  
    15     6     7 1   
    16     6    28 1   
    17     6    29 1   
    18     7    12 1   
    19     7    30 1   
    20     7    31 1   
    21     8     9 1   
    22     8    11 ar  
    23     8    23 ar  
    24     9    10 1   
    25    10    32 1   
    26    10    33 1   
    27    10    34 1   
    28    11    35 1   
    29    12    13 2   
    30    12    21 1   
    31    13    14 ar  
    32    13    36 1   
    33    14    15 ar  
    34    14    20 ar  
    35    15    16 1   
    36    16    17 1   
    37    17    18 1   
    38    17    37 1   
    39    17    38 1   
    40    19    39 1   
    41    22    23 ar  
    42    22    40 1   
    43    23    24 1   
    44    24    25 1   
    45    25    41 1   
    46    25    42 1   
    47    25    43 1   
@<TRIPOS>SUBSTRUCTURE
     1 EWV         1 TEMP              0 ****  ****    0 ROOT
