@<TRIPOS>MOLECULE
EWW
   35    36     1     0     0
SMALL
No Charge or Current Charge


@<TRIPOS>ATOM
      1 Cl          -4.8000    -2.0520    -0.0250 cl         1 EWW      -0.153000
      2 C3          -3.3980    -0.9790    -0.0060 ca         1 EWW       0.199000
      3 C4          -3.5080     0.4290    -0.0260 ca         1 EWW      -0.232500
      4 S6          -5.1030     1.2620    -0.0450 sy         1 EWW       1.161600
      5 O8          -4.9330     2.7130    -0.0710 o          1 EWW      -0.538000
      6 N11         -5.7030     0.9190    -1.5210 n8         1 EWW      -1.044100
      7 O7          -6.0530     0.6180     0.8580 o          1 EWW      -0.538000
      8 C5          -2.3310     1.2080    -0.0380 ca         1 EWW      -0.024000
      9 C2          -2.1290    -1.5830     0.0120 ca         1 EWW      -0.075000
     10 C22         -0.9440    -0.8110     0.0080 ca         1 EWW      -0.117600
     11 C1          -1.0650     0.5980    -0.0190 ca         1 EWW      -0.096000
     12 C9           0.4080    -1.5020     0.0280 c          1 EWW       0.588700
     13 O12          0.4790    -2.7260     0.0480 o          1 EWW      -0.489100
     14 C10          1.6790    -0.6380     0.0230 c3         1 EWW      -0.065400
     15 S13          3.2640    -1.6210     0.0550 ss         1 EWW      -0.181200
     16 C14          4.5290    -0.3930     0.0440 cc         1 EWW       0.513800
     17 N17          5.8380    -0.7600     0.0620 ns         1 EWW      -0.402400
     18 C18          6.8620     0.1090     0.0540 c          1 EWW       0.566200
     19 O21          8.0300    -0.2410     0.0690 o          1 EWW      -0.535000
     20 C19          6.4100     1.4830     0.0250 cc         1 EWW      -0.365200
     21 C16          5.0850     1.8630     0.0090 cd         1 EWW       0.201400
     22 N15          4.1040     0.8690     0.0170 nd         1 EWW      -0.684300
     23 C20          4.6300     3.2970    -0.0250 c3         1 EWW      -0.050900
     24 H1          -6.0090     1.8470    -1.8060 hn         1 EWW       0.493500
     25 H2          -6.5810     0.4810    -1.2500 hn         1 EWW       0.493500
     26 H3          -2.3870     2.2960    -0.0580 ha         1 EWW       0.151000
     27 H4          -2.0740    -2.6690     0.0260 ha         1 EWW       0.154000
     28 H5          -0.1880     1.2400    -0.0260 ha         1 EWW       0.128000
     29 H6           1.6570    -0.0160    -0.8790 h1         1 EWW       0.108700
     30 H7           1.6420     0.0160     0.9020 h1         1 EWW       0.108700
     31 H8           7.2020     2.2210     0.0150 ha         1 EWW       0.216000
     32 H10          4.4610     3.6260    -1.0560 hc         1 EWW       0.056367
     33 H11          3.6940     3.4310     0.5300 hc         1 EWW       0.056367
     34 H12          5.3780     3.9620     0.4220 hc         1 EWW       0.056367
     35 H13          6.0760    -1.7400     0.0820 hn         1 EWW       0.341500
@<TRIPOS>BOND
     1     1     2 1   
     2     2     3 ar  
     3     2     9 ar  
     4     3     4 1   
     5     3     8 ar  
     6     4     5 2   
     7     4     6 1   
     8     4     7 2   
     9     6    24 1   
    10     6    25 1   
    11     8    11 ar  
    12     8    26 1   
    13     9    10 ar  
    14     9    27 1   
    15    10    11 ar  
    16    10    12 1   
    17    11    28 1   
    18    12    13 2   
    19    12    14 1   
    20    14    15 1   
    21    14    29 1   
    22    14    30 1   
    23    15    16 1   
    24    16    17 1   
    25    16    22 2   
    26    17    18 1   
    27    17    35 1   
    28    18    19 2   
    29    18    20 1   
    30    20    21 2   
    31    20    31 1   
    32    21    22 1   
    33    21    23 1   
    34    23    32 1   
    35    23    33 1   
    36    23    34 1   
@<TRIPOS>SUBSTRUCTURE
     1 EWW         1 TEMP              0 ****  ****    0 ROOT
