@<TRIPOS>MOLECULE
EWW
   35    36     1     0     0
SMALL
abcg2


@<TRIPOS>ATOM
      1 CL          -4.6750    -2.0100    -0.0080 cl         1 EWW      -0.153000
      2 C3          -3.3160    -0.9540    -0.0110 ca         1 EWW       0.199000
      3 C4          -3.4620     0.4330    -0.0260 ca         1 EWW      -0.232500
      4 S6          -5.0670     1.2140     0.0020 sy         1 EWW       1.161600
      5 O8          -4.8270     2.6460    -0.0450 o          1 EWW      -0.538000
      6 N11         -5.7360     0.6930    -1.3970 n8         1 EWW      -1.044100
      7 O7          -5.8260     0.6500     1.1020 o          1 EWW      -0.538000
      8 C5          -2.3370     1.2420    -0.0310 ca         1 EWW      -0.024000
      9 C2          -2.0550    -1.5170    -0.0110 ca         1 EWW      -0.075000
     10 C22         -0.9250    -0.7030    -0.0170 ca         1 EWW      -0.117600
     11 C1          -1.0720     0.6790    -0.0270 ca         1 EWW      -0.096000
     12 C9           0.4130    -1.3590    -0.0150 c          1 EWW       0.588700
     13 O12          0.5230    -2.5630    -0.0130 o          1 EWW      -0.489100
     14 C10          1.6270    -0.4690    -0.0160 c3         1 EWW      -0.065400
     15 S13          3.0880    -1.5330    -0.0210 ss         1 EWW      -0.181200
     16 C14          4.3370    -0.3070     0.0050 cc         1 EWW       0.513800
     17 N17          5.5980    -0.7890     0.0130 ns         1 EWW      -0.402400
     18 C18          6.7260     0.0300     0.0410 c          1 EWW       0.566200
     19 O21          7.8430    -0.4620     0.0460 o          1 EWW      -0.535000
     20 C19          6.3970     1.4270     0.0600 cc         1 EWW      -0.365200
     21 C16          5.0990     1.8310     0.0470 cd         1 EWW       0.201400
     22 N15          4.0540     0.9520     0.0190 nd         1 EWW      -0.684300
     23 C20          4.7130     3.2720     0.0570 c3         1 EWW      -0.050900
     24 H1          -5.6390     1.3360    -2.1720 hn         1 EWW       0.493500
     25 H2          -6.6740     0.3260    -1.2980 hn         1 EWW       0.493500
     26 H3          -2.4400     2.3170    -0.0400 ha         1 EWW       0.151000
     27 H4          -1.9510    -2.5930    -0.0050 ha         1 EWW       0.154000
     28 H5          -0.2180     1.3410    -0.0320 ha         1 EWW       0.128000
     29 H6           1.6310     0.1790    -0.8930 h1         1 EWW       0.108700
     30 H7           1.6340     0.1730     0.8670 h1         1 EWW       0.108700
     31 H8           7.2050     2.1430     0.0840 ha         1 EWW       0.216000
     32 H10          4.1720     3.5210    -0.8570 hc         1 EWW       0.056367
     33 H11          4.0410     3.4770     0.8910 hc         1 EWW       0.056367
     34 H12          5.5800     3.9230     0.1350 hc         1 EWW       0.056367
     35 H13          5.7610    -1.7890     0.0000 hn         1 EWW       0.341500
@<TRIPOS>BOND
     1     1     2 1   
     2     2     3 ar  
     3     2     9 ar  
     4     3     4 1   
     5     3     8 ar  
     6     4     5 2   
     7     4     6 1   
     8     4     7 2   
     9     6    24 1   
    10     6    25 1   
    11     8    11 ar  
    12     8    26 1   
    13     9    10 ar  
    14     9    27 1   
    15    10    11 ar  
    16    10    12 1   
    17    11    28 1   
    18    12    13 2   
    19    12    14 1   
    20    14    15 1   
    21    14    29 1   
    22    14    30 1   
    23    15    16 1   
    24    16    17 1   
    25    16    22 2   
    26    17    18 1   
    27    17    35 1   
    28    18    19 2   
    29    18    20 1   
    30    20    21 2   
    31    20    31 1   
    32    21    22 1   
    33    21    23 1   
    34    23    32 1   
    35    23    33 1   
    36    23    34 1   
@<TRIPOS>SUBSTRUCTURE
     1 EWW         1 TEMP              0 ****  ****    0 ROOT
