@<TRIPOS>MOLECULE
EWX
   39    41     1     0     0
SMALL
abcg2


@<TRIPOS>ATOM
      1 O           11.0750   -29.3800    15.5700 o          1 EWX      -0.558000
      2 C4          11.6260   -28.7130    14.7150 c          1 EWX       0.595000
      3 N2          11.1350   -27.6380    14.0330 ns         1 EWX      -0.485600
      4 C           12.0830   -27.1750    13.1320 ca         1 EWX      -0.223400
      5 N3          12.9170   -28.9040    14.2380 n          1 EWX      -0.374300
      6 C8          13.7850   -29.9820    14.6600 c3         1 EWX       0.177300
      7 C9          13.5790   -31.2240    13.8380 ca         1 EWX      -0.175300
      8 C13         12.7740   -32.2580    14.3030 ca         1 EWX       0.360900
      9 N5          12.5330   -33.3710    13.6220 nb         1 EWX      -0.668000
     10 C12         13.0950   -33.5000    12.4260 ca         1 EWX       0.343900
     11 C11         13.9160   -32.5320    11.8640 ca         1 EWX      -0.173000
     12 C10         14.1610   -31.3750    12.5850 ca         1 EWX      -0.052000
     13 C1          13.1910   -27.9840    13.2670 ca         1 EWX       0.244900
     14 N           14.3150   -27.8760    12.5780 nb         1 EWX      -0.306000
     15 C3          14.2850   -26.8760    11.7110 ca         1 EWX       0.408300
     16 N1          13.2950   -26.0300    11.4860 nb         1 EWX      -0.282000
     17 C2          12.1620   -26.1520    12.1890 ca         1 EWX       0.437900
     18 N4          11.1780   -25.2630    11.9670 nv         1 EWX      -1.061900
     19 O1          15.3490   -26.6600    10.9390 os         1 EWX      -0.422300
     20 C5          16.4890   -27.5040    11.0700 c3         1 EWX       0.178600
     21 C6          17.3670   -27.1420    12.2430 c3         1 EWX       0.126600
     22 O2          17.8690   -25.8420    12.0680 os         1 EWX      -0.443000
     23 C7          18.6940   -25.4370    13.1290 c3         1 EWX       0.144900
     24 H1          10.2080   -27.2750    14.1830 hn         1 EWX       0.467000
     25 H2          13.5900   -30.1810    15.7130 h1         1 EWX       0.075700
     26 H3          14.8140   -29.6310    14.5800 h1         1 EWX       0.075700
     27 H4          12.3030   -32.1740    15.2780 h4         1 EWX       0.031100
     28 H5          12.8850   -34.4170    11.8870 h4         1 EWX       0.019100
     29 H6          14.3520   -32.6880    10.8870 ha         1 EWX       0.124000
     30 H7          14.7950   -30.5960    12.1780 ha         1 EWX       0.128000
     31 H8          11.2480   -24.6730    11.1550 hn         1 EWX       0.494000
     32 H9          10.2490   -25.4320    12.3100 hn         1 EWX       0.494000
     33 H10         16.1950   -28.5520    11.1500 h1         1 EWX       0.069200
     34 H11         17.0400   -27.3790    10.1370 h1         1 EWX       0.069200
     35 H12         16.8110   -27.2290    13.1850 h1         1 EWX       0.035700
     36 H13         18.1810   -27.8800    12.2840 h1         1 EWX       0.035700
     37 H14         19.0520   -24.4310    12.9140 h1         1 EWX       0.029033
     38 H15         18.1550   -25.4150    14.0840 h1         1 EWX       0.029033
     39 H16         19.5630   -26.0950    13.2510 h1         1 EWX       0.029033
@<TRIPOS>BOND
     1     1     2 2   
     2     2     3 1   
     3     2     5 1   
     4     3     4 1   
     5     3    24 1   
     6     4    13 ar  
     7     4    17 ar  
     8     5     6 1   
     9     5    13 1   
    10     6     7 1   
    11     6    25 1   
    12     6    26 1   
    13     7     8 ar  
    14     7    12 ar  
    15     8     9 ar  
    16     8    27 1   
    17     9    10 ar  
    18    10    11 ar  
    19    10    28 1   
    20    11    12 ar  
    21    11    29 1   
    22    12    30 1   
    23    13    14 ar  
    24    14    15 ar  
    25    15    16 ar  
    26    15    19 1   
    27    16    17 ar  
    28    17    18 1   
    29    18    31 1   
    30    18    32 1   
    31    19    20 1   
    32    20    21 1   
    33    20    33 1   
    34    20    34 1   
    35    21    22 1   
    36    21    35 1   
    37    21    36 1   
    38    22    23 1   
    39    23    37 1   
    40    23    38 1   
    41    23    39 1   
@<TRIPOS>SUBSTRUCTURE
     1 EWX         1 TEMP              0 ****  ****    0 ROOT
