@<TRIPOS>MOLECULE
EWX
   39    41     1     0     0
SMALL
No Charge or Current Charge


@<TRIPOS>ATOM
      1 O           11.0550   -29.2570    15.7680 o          1 EWX      -0.558000
      2 C4          11.6590   -28.6890    14.8760 c          1 EWX       0.595000
      3 N2          11.2860   -27.5560    14.1990 ns         1 EWX      -0.485600
      4 C           12.2310   -27.1690    13.2210 ca         1 EWX      -0.223400
      5 N3          12.8920   -29.0310    14.2980 n          1 EWX      -0.374300
      6 C8          13.6980   -30.1950    14.6880 c3         1 EWX       0.177300
      7 C9          13.4360   -31.4050    13.8080 ca         1 EWX      -0.175300
      8 C13         12.3890   -32.2940    14.1180 ca         1 EWX       0.360900
      9 N5          12.1000   -33.3880    13.3730 nb         1 EWX      -0.668000
     10 C12         12.8600   -33.6220    12.2780 ca         1 EWX       0.343900
     11 C11         13.9210   -32.7870    11.8920 ca         1 EWX      -0.173000
     12 C10         14.2200   -31.6550    12.6670 ca         1 EWX      -0.052000
     13 C1          13.2380   -28.0980    13.2850 ca         1 EWX       0.244900
     14 N           14.3260   -28.0720    12.5080 nb         1 EWX      -0.306000
     15 C3          14.3700   -27.0320    11.6290 ca         1 EWX       0.408300
     16 N1          13.4150   -26.0700    11.4890 nb         1 EWX      -0.282000
     17 C2          12.3400   -26.1370    12.2910 ca         1 EWX       0.437900
     18 N4          11.3930   -25.1760    12.1390 nv         1 EWX      -1.061900
     19 O1          15.4470   -26.9310    10.7740 os         1 EWX      -0.422300
     20 C5          16.6990   -27.6170    11.0240 c3         1 EWX       0.178600
     21 C6          17.4200   -26.9860    12.2450 c3         1 EWX       0.126600
     22 O2          17.8500   -25.6540    11.8990 os         1 EWX      -0.443000
     23 C7          18.5280   -24.9530    12.9560 c3         1 EWX       0.144900
     24 H1          10.4300   -27.0540    14.4240 hn         1 EWX       0.467000
     25 H2          13.4810   -30.4480    15.7350 h1         1 EWX       0.075700
     26 H3          14.7600   -29.9250    14.6360 h1         1 EWX       0.075700
     27 H4          11.7590   -32.1280    14.9920 h4         1 EWX       0.031100
     28 H5          12.6100   -34.5070    11.6930 h4         1 EWX       0.019100
     29 H6          14.5000   -33.0190    11.0030 ha         1 EWX       0.124000
     30 H7          15.0360   -30.9900    12.3880 ha         1 EWX       0.128000
     31 H8          11.4430   -24.5890    11.3100 hn         1 EWX       0.494000
     32 H9          10.4640   -25.3440    12.5150 hn         1 EWX       0.494000
     33 H10         16.5340   -28.6870    11.2070 h1         1 EWX       0.069200
     34 H11         17.3570   -27.5360    10.1500 h1         1 EWX       0.069200
     35 H12         16.7490   -26.9690    13.1140 h1         1 EWX       0.035700
     36 H13         18.2860   -27.6090    12.5020 h1         1 EWX       0.035700
     37 H14         18.8250   -23.9520    12.6200 h1         1 EWX       0.029033
     38 H15         17.8750   -24.8410    13.8310 h1         1 EWX       0.029033
     39 H16         19.4330   -25.4930    13.2640 h1         1 EWX       0.029033
@<TRIPOS>BOND
     1     1     2 2   
     2     2     3 1   
     3     2     5 1   
     4     3     4 1   
     5     3    24 1   
     6     4    13 ar  
     7     4    17 ar  
     8     5     6 1   
     9     5    13 1   
    10     6     7 1   
    11     6    25 1   
    12     6    26 1   
    13     7     8 ar  
    14     7    12 ar  
    15     8     9 ar  
    16     8    27 1   
    17     9    10 ar  
    18    10    11 ar  
    19    10    28 1   
    20    11    12 ar  
    21    11    29 1   
    22    12    30 1   
    23    13    14 ar  
    24    14    15 ar  
    25    15    16 ar  
    26    15    19 1   
    27    16    17 ar  
    28    17    18 1   
    29    18    31 1   
    30    18    32 1   
    31    19    20 1   
    32    20    21 1   
    33    20    33 1   
    34    20    34 1   
    35    21    22 1   
    36    21    35 1   
    37    21    36 1   
    38    22    23 1   
    39    23    37 1   
    40    23    38 1   
    41    23    39 1   
@<TRIPOS>SUBSTRUCTURE
     1 EWX         1 TEMP              0 ****  ****    0 ROOT
