@<TRIPOS>MOLECULE
EWY
   35    36     1     0     0
SMALL
bcc


@<TRIPOS>ATOM
      1 O20         -7.2120    -1.2200     0.0240 o          1 EWY      -0.611500
      2 C18         -6.2080    -0.5260     0.0060 c          1 EWY       0.708700
      3 C22         -6.1480     0.9070    -0.0120 cc         1 EWY      -0.316200
      4 C17         -4.9480     1.5480    -0.0300 cd         1 EWY       0.201400
      5 C21         -4.8430     3.0350    -0.0470 c3         1 EWY      -0.050900
      6 N16         -3.7560     0.8800    -0.0330 nd         1 EWY      -0.685300
      7 N19         -4.9470    -1.1180     0.0010 ns         1 EWY      -0.469400
      8 C15         -3.7970    -0.4090    -0.0170 cc         1 EWY       0.512800
      9 S14         -2.3440    -1.3840    -0.0160 ss         1 EWY      -0.128300
     10 C13         -1.1010    -0.0740    -0.0370 c3         1 EWY      -0.115300
     11 C11          0.2540    -0.7340    -0.0120 c          1 EWY       0.593700
     12 O12          0.3530    -1.9400     0.0170 o          1 EWY      -0.498100
     13 C2           1.4510     0.1460    -0.0220 ca         1 EWY      -0.197600
     14 C3           2.7110    -0.4530     0.0250 ca         1 EWY       0.021000
     15 C4           3.8360     0.3460     0.0170 ca         1 EWY      -0.281500
     16 S7           5.4440    -0.3980     0.0950 sy         1 EWY       1.269200
     17 O9           5.2640    -1.8070     0.4120 o          1 EWY      -0.608300
     18 N10          5.9780    -0.1450    -1.4450 n8         1 EWY      -0.897700
     19 O8           6.3000     0.4080     0.9530 o          1 EWY      -0.608300
     20 C5           3.7450     1.7340    -0.0330 ca         1 EWY       0.009000
     21 C6           2.4940     2.3220    -0.0780 ca         1 EWY      -0.161000
     22 C1           1.3520     1.5340    -0.0720 ca         1 EWY      -0.037000
     23 H1          -7.0760     1.4610    -0.0110 ha         1 EWY       0.165000
     24 H3          -4.2860     3.3830     0.8250 hc         1 EWY       0.055700
     25 H4          -4.2930     3.3640    -0.9300 hc         1 EWY       0.055700
     26 H5          -5.8210     3.5100    -0.0480 hc         1 EWY       0.055700
     27 H6          -1.2140     0.5400    -0.9320 h1         1 EWY       0.105200
     28 H7          -1.2270     0.5810     0.8260 h1         1 EWY       0.105200
     29 H8           2.7970    -1.5300     0.0670 ha         1 EWY       0.179000
     30 H9           6.9920    -0.1890    -1.5010 hn         1 EWY       0.421800
     31 H10          5.5590    -0.7770    -2.1190 hn         1 EWY       0.421800
     32 H11          4.6320     2.3520    -0.0360 ha         1 EWY       0.158000
     33 H12          2.4060     3.3990    -0.1150 ha         1 EWY       0.145000
     34 H13          0.3880     2.0230    -0.1090 ha         1 EWY       0.140000
     35 H2          -4.9190    -2.1310     0.0140 hn         1 EWY       0.341500
@<TRIPOS>BOND
     1     1     2 2   
     2     2     3 1   
     3     2     7 1   
     4     3     4 2   
     5     3    23 1   
     6     4     5 1   
     7     4     6 1   
     8     5    24 1   
     9     5    25 1   
    10     5    26 1   
    11     6     8 2   
    12     7     8 1   
    13     7    35 1   
    14     8     9 1   
    15     9    10 1   
    16    10    11 1   
    17    10    27 1   
    18    10    28 1   
    19    11    12 2   
    20    11    13 1   
    21    13    14 ar  
    22    13    22 ar  
    23    14    15 ar  
    24    14    29 1   
    25    15    16 1   
    26    15    20 ar  
    27    16    17 2   
    28    16    18 1   
    29    16    19 2   
    30    18    30 1   
    31    18    31 1   
    32    20    21 ar  
    33    20    32 1   
    34    21    22 ar  
    35    21    33 1   
    36    22    34 1   
@<TRIPOS>SUBSTRUCTURE
     1 EWY         1 TEMP              0 ****  ****    0 ROOT
