@<TRIPOS>MOLECULE
EWY
   35    36     1     0     0
SMALL
No Charge or Current Charge


@<TRIPOS>ATOM
      1 O20         -7.4370    -1.0480    -0.0620 o          1 EWY      -0.536000
      2 C18         -6.3600    -0.4790    -0.0510 c          1 EWY       0.566200
      3 C22         -6.1820     0.9570    -0.0350 cc         1 EWY      -0.366200
      4 C17         -4.9550     1.5860    -0.0220 cd         1 EWY       0.201400
      5 C21         -4.7800     3.0800    -0.0050 c3         1 EWY      -0.050900
      6 N16         -3.8010     0.8000    -0.0240 nd         1 EWY      -0.685300
      7 N19         -5.1870    -1.1340    -0.0520 ns         1 EWY      -0.402400
      8 C15         -3.9740    -0.5200    -0.0390 cc         1 EWY       0.512800
      9 S14         -2.4950    -1.4810    -0.0420 ss         1 EWY      -0.176200
     10 C13         -1.1290    -0.2110    -0.0220 c3         1 EWY      -0.067400
     11 C11          0.2840    -0.8150    -0.0210 c          1 EWY       0.593700
     12 O12          0.4500    -2.0300    -0.0320 o          1 EWY      -0.498100
     13 C2           1.4770     0.1190    -0.0070 ca         1 EWY      -0.197600
     14 C3           2.7850    -0.4210    -0.0090 ca         1 EWY       0.039000
     15 C4           3.9100     0.4270     0.0040 ca         1 EWY      -0.281500
     16 S7           5.5590    -0.2740     0.0020 sy         1 EWY       1.127600
     17 O9           5.5400    -1.6530     0.4800 o          1 EWY      -0.537500
     18 N10          5.8900    -0.4250    -1.5880 n8         1 EWY      -1.008100
     19 O8           6.5440     0.7010     0.4660 o          1 EWY      -0.537500
     20 C5           3.7400     1.8240     0.0150 ca         1 EWY       0.027000
     21 C6           2.4460     2.3660     0.0180 ca         1 EWY      -0.143000
     22 C1           1.3200     1.5260     0.0070 ca         1 EWY      -0.019000
     23 H1          -7.1020     1.5270    -0.0330 ha         1 EWY       0.215000
     24 H3          -4.2260     3.3990     0.8850 hc         1 EWY       0.055700
     25 H4          -4.2230     3.4180    -0.8870 hc         1 EWY       0.055700
     26 H5          -5.7450     3.5990    -0.0010 hc         1 EWY       0.055700
     27 H6          -1.2190     0.4290    -0.9060 h1         1 EWY       0.105200
     28 H7          -1.2280     0.4110     0.8750 h1         1 EWY       0.105200
     29 H8           2.9280    -1.5020    -0.0230 ha         1 EWY       0.161000
     30 H9           6.7740     0.0760    -1.6390 hn         1 EWY       0.477000
     31 H10          6.1940    -1.3950    -1.6210 hn         1 EWY       0.477000
     32 H11          4.6010     2.4910     0.0220 ha         1 EWY       0.140000
     33 H12          2.3140     3.4460     0.0270 ha         1 EWY       0.127000
     34 H13          0.3350     1.9870     0.0100 ha         1 EWY       0.122000
     35 H2          -5.2310    -2.1410    -0.0630 hn         1 EWY       0.341500
@<TRIPOS>BOND
     1     1     2 2   
     2     2     3 1   
     3     2     7 1   
     4     3     4 2   
     5     3    23 1   
     6     4     5 1   
     7     4     6 1   
     8     5    24 1   
     9     5    25 1   
    10     5    26 1   
    11     6     8 2   
    12     7     8 1   
    13     7    35 1   
    14     8     9 1   
    15     9    10 1   
    16    10    11 1   
    17    10    27 1   
    18    10    28 1   
    19    11    12 2   
    20    11    13 1   
    21    13    14 ar  
    22    13    22 ar  
    23    14    15 ar  
    24    14    29 1   
    25    15    16 1   
    26    15    20 ar  
    27    16    17 2   
    28    16    18 1   
    29    16    19 2   
    30    18    30 1   
    31    18    31 1   
    32    20    21 ar  
    33    20    32 1   
    34    21    22 ar  
    35    21    33 1   
    36    22    34 1   
@<TRIPOS>SUBSTRUCTURE
     1 EWY         1 TEMP              0 ****  ****    0 ROOT
