@<TRIPOS>MOLECULE
EWZ
   44    45     1     0     0
SMALL
abcg2


@<TRIPOS>ATOM
      1 O7          -7.0790    -2.0720    -0.1130 o          1 EWZ      -0.538000
      2 C2          -6.0930    -1.3550    -0.0600 c          1 EWZ       0.564200
      3 C3          -6.0730     0.0810    -0.0820 cc         1 EWZ      -0.362200
      4 C4          -4.8970     0.7610    -0.0120 cd         1 EWZ       0.209400
      5 C8          -4.7950     2.2730    -0.0090 c3         1 EWZ       0.000200
      6 C15         -3.8180     2.7060    -1.1100 c3         1 EWZ      -0.081433
      7 C14         -6.1450     2.9440    -0.2500 c3         1 EWZ      -0.081433
      8 C9          -4.2540     2.7060     1.3600 c3         1 EWZ      -0.081433
      9 N5          -3.6960     0.1170     0.0800 nd         1 EWZ      -0.684300
     10 N1          -4.8220    -1.9150     0.0270 ns         1 EWZ      -0.402400
     11 C6          -3.6970    -1.1700     0.0890 cc         1 EWZ       0.512800
     12 S10         -2.2100    -2.0910     0.1770 ss         1 EWZ      -0.178200
     13 C11         -1.0270    -0.7270     0.1750 c3         1 EWZ      -0.067400
     14 C12          0.3590    -1.3160     0.1560 c          1 EWZ       0.594700
     15 O13          0.5250    -2.5140     0.1680 o          1 EWZ      -0.493100
     16 C16          1.5040    -0.3710     0.1140 ca         1 EWZ      -0.198600
     17 C21          1.3340     1.0090     0.1590 ca         1 EWZ      -0.014000
     18 C20          2.4280     1.8550     0.1150 ca         1 EWZ      -0.141000
     19 C19          3.7060     1.3280     0.0240 ca         1 EWZ       0.237000
     20 CL           5.0290     2.4190    -0.0410 cl         1 EWZ      -0.149000
     21 C17          2.7910    -0.8940     0.0240 ca         1 EWZ       0.043000
     22 C18          3.8890    -0.0550    -0.0250 ca         1 EWZ      -0.272500
     23 S22          5.5110    -0.7910    -0.1120 sy         1 EWZ       1.161600
     24 O23          6.3320    -0.2190     0.9380 o          1 EWZ      -0.536500
     25 O25          5.3050    -2.2290    -0.1530 o          1 EWZ      -0.536500
     26 N26          6.0710    -0.2370    -1.5460 n8         1 EWZ      -1.042100
     27 H1          -7.0230     0.5890    -0.1570 ha         1 EWZ       0.217000
     28 H2          -4.1610     2.3840    -2.0950 hc         1 EWZ       0.039478
     29 H3          -3.7400     3.7950    -1.1240 hc         1 EWZ       0.039478
     30 H4          -2.8210     2.2990    -0.9470 hc         1 EWZ       0.039478
     31 H5          -6.8640     2.7210     0.5390 hc         1 EWZ       0.039478
     32 H6          -6.0130     4.0270    -0.2710 hc         1 EWZ       0.039478
     33 H7          -6.5830     2.6470    -1.2040 hc         1 EWZ       0.039478
     34 H8          -3.2900     2.2450     1.5740 hc         1 EWZ       0.039478
     35 H9          -4.1240     3.7890     1.3840 hc         1 EWZ       0.039478
     36 H10         -4.9470     2.4360     2.1600 hc         1 EWZ       0.039478
     37 H11         -4.7670    -2.9270     0.0340 hn         1 EWZ       0.341500
     38 H12         -1.1870    -0.0940    -0.7000 h1         1 EWZ       0.105200
     39 H13         -1.1690    -0.1020     1.0580 h1         1 EWZ       0.105200
     40 H14          0.3500     1.4530     0.2320 ha         1 EWZ       0.126000
     41 H15          2.2880     2.9260     0.1500 ha         1 EWZ       0.138000
     42 H16          2.9300    -1.9650    -0.0130 ha         1 EWZ       0.167000
     43 H17          7.0210     0.1110    -1.5060 hn         1 EWZ       0.491500
     44 H18          5.9160    -0.8660    -2.3250 hn         1 EWZ       0.491500
@<TRIPOS>BOND
     1     1     2 2   
     2     2     3 1   
     3     2    10 1   
     4     3     4 2   
     5     3    27 1   
     6     4     5 1   
     7     4     9 1   
     8     5     6 1   
     9     5     7 1   
    10     5     8 1   
    11     6    28 1   
    12     6    29 1   
    13     6    30 1   
    14     7    31 1   
    15     7    32 1   
    16     7    33 1   
    17     8    34 1   
    18     8    35 1   
    19     8    36 1   
    20     9    11 2   
    21    10    11 1   
    22    10    37 1   
    23    11    12 1   
    24    12    13 1   
    25    13    14 1   
    26    13    38 1   
    27    13    39 1   
    28    14    15 2   
    29    14    16 1   
    30    16    17 ar  
    31    16    21 ar  
    32    17    18 ar  
    33    17    40 1   
    34    18    19 ar  
    35    18    41 1   
    36    19    20 1   
    37    19    22 ar  
    38    21    22 ar  
    39    21    42 1   
    40    22    23 1   
    41    23    24 2   
    42    23    25 2   
    43    23    26 1   
    44    26    43 1   
    45    26    44 1   
@<TRIPOS>SUBSTRUCTURE
     1 EWZ         1 TEMP              0 ****  ****    0 ROOT
