@<TRIPOS>MOLECULE
EWZ
   44    45     1     0     0
SMALL
No Charge or Current Charge


@<TRIPOS>ATOM
      1 O7          -7.3230    -1.9660    -0.0140 o          1 EWZ      -0.538000
      2 C2          -6.2670    -1.3580    -0.0080 c          1 EWZ       0.564200
      3 C3          -6.1440     0.0840    -0.0000 cc         1 EWZ      -0.362200
      4 C4          -4.9410     0.7720     0.0060 cd         1 EWZ       0.209400
      5 C8          -4.7840     2.3020     0.0140 c3         1 EWZ       0.000200
      6 C15         -3.9980     2.7510    -1.2480 c3         1 EWZ      -0.081433
      7 C14         -6.1540     3.0370     0.0140 c3         1 EWZ      -0.081433
      8 C9          -4.0050     2.7380     1.2860 c3         1 EWZ      -0.081433
      9 N5          -3.7640     0.0090     0.0050 nd         1 EWZ      -0.684300
     10 N1          -5.0740    -1.9710    -0.0080 ns         1 EWZ      -0.402400
     11 C6          -3.8880    -1.3140    -0.0020 cc         1 EWZ       0.512800
     12 S10         -2.3710    -2.2130    -0.0040 ss         1 EWZ      -0.178200
     13 C11         -1.0640    -0.8830     0.0060 c3         1 EWZ      -0.067400
     14 C12          0.3760    -1.4180     0.0060 c          1 EWZ       0.594700
     15 O13          0.6000    -2.6230     0.0030 o          1 EWZ      -0.493100
     16 C16          1.5230    -0.4270     0.0100 ca         1 EWZ      -0.198600
     17 C21          1.2980     0.9680     0.0180 ca         1 EWZ      -0.014000
     18 C20          2.3830     1.8580     0.0180 ca         1 EWZ      -0.141000
     19 C19          3.7040     1.3850     0.0150 ca         1 EWZ       0.237000
     20 Cl           4.9920     2.5930    -0.0120 cl         1 EWZ      -0.149000
     21 C17          2.8550    -0.9010     0.0070 ca         1 EWZ       0.043000
     22 C18          3.9460    -0.0040     0.0140 ca         1 EWZ      -0.272500
     23 S22          5.6100    -0.6740     0.0160 sy         1 EWZ       1.161600
     24 O23          6.4850     0.0720     0.9170 o          1 EWZ      -0.536500
     25 O25          5.5830    -2.1340     0.0080 o          1 EWZ      -0.536500
     26 N26          6.1790    -0.2900    -1.4610 n8         1 EWZ      -1.042100
     27 H1          -7.0970     0.5930     0.0000 ha         1 EWZ       0.217000
     28 H2          -4.5140     2.4300    -2.1610 hc         1 EWZ       0.039478
     29 H3          -3.8970     3.8430    -1.2810 hc         1 EWZ       0.039478
     30 H4          -2.9880     2.3230    -1.2630 hc         1 EWZ       0.039478
     31 H5          -6.7440     2.7750     0.9010 hc         1 EWZ       0.039478
     32 H6          -6.0150     4.1250     0.0200 hc         1 EWZ       0.039478
     33 H7          -6.7390     2.7840    -0.8790 hc         1 EWZ       0.039478
     34 H8          -2.9960     2.3100     1.3020 hc         1 EWZ       0.039478
     35 H9          -3.9040     3.8290     1.3310 hc         1 EWZ       0.039478
     36 H10         -4.5270     2.4080     2.1920 hc         1 EWZ       0.039478
     37 H11         -5.0820    -2.9790    -0.0140 hn         1 EWZ       0.341500
     38 H12         -1.1860    -0.2520    -0.8820 h1         1 EWZ       0.105200
     39 H13         -1.1900    -0.2600     0.8990 h1         1 EWZ       0.105200
     40 H14          0.2920     1.3830     0.0200 ha         1 EWZ       0.126000
     41 H15          2.1980     2.9290     0.0170 ha         1 EWZ       0.138000
     42 H16          3.0400    -1.9760     0.0010 ha         1 EWZ       0.167000
     43 H17          7.0050     0.2400    -1.1940 hn         1 EWZ       0.491500
     44 H18          6.5800    -1.1840    -1.7330 hn         1 EWZ       0.491500
@<TRIPOS>BOND
     1     1     2 2   
     2     2     3 1   
     3     2    10 1   
     4     3     4 2   
     5     3    27 1   
     6     4     5 1   
     7     4     9 1   
     8     5     6 1   
     9     5     7 1   
    10     5     8 1   
    11     6    28 1   
    12     6    29 1   
    13     6    30 1   
    14     7    31 1   
    15     7    32 1   
    16     7    33 1   
    17     8    34 1   
    18     8    35 1   
    19     8    36 1   
    20     9    11 2   
    21    10    11 1   
    22    10    37 1   
    23    11    12 1   
    24    12    13 1   
    25    13    14 1   
    26    13    38 1   
    27    13    39 1   
    28    14    15 2   
    29    14    16 1   
    30    16    17 ar  
    31    16    21 ar  
    32    17    18 ar  
    33    17    40 1   
    34    18    19 ar  
    35    18    41 1   
    36    19    20 1   
    37    19    22 ar  
    38    21    22 ar  
    39    21    42 1   
    40    22    23 1   
    41    23    24 2   
    42    23    25 2   
    43    23    26 1   
    44    26    43 1   
    45    26    44 1   
@<TRIPOS>SUBSTRUCTURE
     1 EWZ         1 TEMP              0 ****  ****    0 ROOT
