@<TRIPOS>MOLECULE
EX0
   65    70     1     0     0
SMALL
No Charge or Current Charge


@<TRIPOS>ATOM
      1 N           -8.9520   -16.0210    39.0030 nb         1 EX0      -0.303000
      2 C           -6.8450   -15.8630    37.9250 ca         1 EX0      -0.132600
      3 O          -10.0030   -14.0370    39.7060 os         1 EX0      -0.440300
      4 C1          -7.8840   -16.5960    38.4250 ca         1 EX0       0.168500
      5 C10         -7.5150   -18.2050    42.5950 ca         1 EX0      -0.105500
      6 C11         -8.8000   -18.2720    43.1680 ca         1 EX0      -0.070300
      7 C12         -9.7190   -18.8460    40.9800 ca         1 EX0      -0.086500
      8 C13         -9.9000   -18.5970    42.3520 ca         1 EX0      -0.105500
      9 C14         -5.5730   -19.1120    37.1280 ca         1 EX0      -0.124900
     10 C15         -4.1610   -19.1230    37.0780 ca         1 EX0      -0.086000
     11 C16         -6.2650   -20.2350    36.6260 ca         1 EX0       0.333900
     12 C17         -3.5130   -20.2700    36.5960 ca         1 EX0       0.116000
     13 C18         -4.2890   -21.3600    36.1540 ca         1 EX0       0.309900
     14 C19         -8.9940   -17.9850    44.6540 c3         1 EX0       0.216100
     15 C2          -6.9240   -14.4630    38.0280 ca         1 EX0       0.482900
     16 C20         -8.9420   -20.3970    45.3860 c5         1 EX0       0.117800
     17 C21         -8.4630   -18.7410    47.0060 c5         1 EX0       0.146500
     18 C22         -9.4090   -20.7660    46.8490 c5         1 EX0       0.156500
     19 C23         -7.4580   -19.7320    47.7100 c5         1 EX0       0.166800
     20 C25         -9.8230   -19.3770    47.3740 c5         1 EX0      -0.117400
     21 C3          -8.9440   -14.6680    39.0900 ca         1 EX0       0.422300
     22 C4          -6.2970   -17.9170    37.5610 cc         1 EX0       0.430400
     23 C5         -10.8200   -14.7110    40.6900 c3         1 EX0       0.177600
     24 C6          -9.9880   -14.9180    41.9730 c3         1 EX0      -0.126100
     25 C7          -8.2490   -19.0020    38.9080 c3         1 EX0       0.133900
     26 C8          -8.4350   -18.7700    40.4060 ca         1 EX0      -0.121300
     27 C9          -7.3330   -18.4530    41.2240 ca         1 EX0      -0.086500
     28 F           -2.1620   -20.3220    36.5530 f          1 EX0      -0.165000
     29 N1          -7.9670   -13.8620    38.6130 nb         1 EX0      -0.314000
     30 N2          -5.8350   -16.6650    37.3810 nd         1 EX0      -0.526100
     31 N3          -7.5350   -17.9020    38.2220 na         1 EX0      -0.268300
     32 N4          -5.9450   -13.6450    37.5610 nv         1 EX0      -1.059900
     33 N5          -5.6470   -21.3470    36.1570 nb         1 EX0      -0.645000
     34 N6          -8.3770   -19.0090    45.5310 n3         1 EX0      -0.725600
     35 N7          -8.2150   -21.0270    47.7170 n3         1 EX0      -0.730600
     36 H1          -6.6580   -17.9580    43.2180 ha         1 EX0       0.121500
     37 H2         -10.5820   -19.0860    40.3620 ha         1 EX0       0.116500
     38 H3         -10.8990   -18.6530    42.7790 ha         1 EX0       0.121500
     39 H4          -3.5780   -18.2680    37.4140 ha         1 EX0       0.153000
     40 H5          -7.3530   -20.2470    36.5770 h4         1 EX0       0.030100
     41 H6          -3.8110   -22.2620    35.7740 h4         1 EX0       0.040100
     42 H7          -8.5510   -17.0030    44.8700 h1         1 EX0       0.039700
     43 H8         -10.0690   -17.8980    44.8640 h1         1 EX0       0.039700
     44 H10         -9.8040   -20.4100    44.7040 h1         1 EX0       0.051700
     45 H11         -8.3300   -17.6880    47.2920 h1         1 EX0       0.078700
     46 H12        -10.1900   -21.5390    46.9000 h1         1 EX0       0.083700
     47 H13         -6.5090   -19.7940    47.1580 h1         1 EX0       0.053200
     48 H14         -7.2310   -19.4080    48.7340 h1         1 EX0       0.053200
     49 H15         -6.6410   -22.3700    48.2100 h1         1 EX0       0.030033
     50 H16         -8.0710   -23.1380    47.4850 h1         1 EX0       0.030033
     51 H17         -6.9450   -22.2070    46.4670 h1         1 EX0       0.030033
     52 H18        -10.0370   -19.3620    48.4490 hc         1 EX0       0.063200
     53 H19        -10.6790   -18.9430    46.8450 hc         1 EX0       0.063200
     54 H20        -11.6940   -14.0930    40.9350 h1         1 EX0       0.060700
     55 H21        -11.1920   -15.6750    40.3170 h1         1 EX0       0.060700
     56 H22        -10.6060   -15.3770    42.7530 hc         1 EX0       0.047367
     57 H23         -9.1320   -15.5770    41.7900 hc         1 EX0       0.047367
     58 H24         -9.6160   -13.9580    42.3510 hc         1 EX0       0.047367
     59 H25         -7.6910   -19.9380    38.7850 h1         1 EX0       0.072200
     60 H26         -9.2250   -19.1330    38.4250 h1         1 EX0       0.072200
     61 H27         -6.3350   -18.3900    40.7970 ha         1 EX0       0.116500
     62 H28         -5.9050   -12.6970    37.9270 hn         1 EX0       0.509500
     63 H29         -5.0580   -14.0810    37.3250 hn         1 EX0       0.509500
     64 H9          -8.2050   -21.1070    44.9880 h1         1 EX0       0.051700
     65 C24         -7.4270   -22.2490    47.4520 c3         1 EX0       0.165100
@<TRIPOS>BOND
     1     1     4 ar  
     2     1    21 ar  
     3     2     4 ar  
     4     2    15 ar  
     5     2    30 1   
     6     3    21 1   
     7     3    23 1   
     8     4    31 1   
     9     5     6 ar  
    10     5    27 ar  
    11     5    36 1   
    12     6     8 ar  
    13     6    14 1   
    14     7     8 ar  
    15     7    26 ar  
    16     7    37 1   
    17     8    38 1   
    18     9    10 ar  
    19     9    11 ar  
    20     9    22 1   
    21    10    12 ar  
    22    10    39 1   
    23    11    33 ar  
    24    11    40 1   
    25    12    13 ar  
    26    12    28 1   
    27    13    33 ar  
    28    13    41 1   
    29    14    34 1   
    30    14    42 1   
    31    14    43 1   
    32    15    29 ar  
    33    15    32 1   
    34    16    18 1   
    35    16    34 1   
    36    16    44 1   
    37    16    64 1   
    38    17    19 1   
    39    17    20 1   
    40    17    34 1   
    41    17    45 1   
    42    18    20 1   
    43    18    35 1   
    44    18    46 1   
    45    19    35 1   
    46    19    47 1   
    47    19    48 1   
    48    20    52 1   
    49    20    53 1   
    50    21    29 ar  
    51    22    30 2   
    52    22    31 1   
    53    23    24 1   
    54    23    54 1   
    55    23    55 1   
    56    24    56 1   
    57    24    57 1   
    58    24    58 1   
    59    25    26 1   
    60    25    31 1   
    61    25    59 1   
    62    25    60 1   
    63    26    27 ar  
    64    27    61 1   
    65    32    62 1   
    66    32    63 1   
    67    35    65 1   
    68    49    65 1   
    69    50    65 1   
    70    51    65 1   
@<TRIPOS>SUBSTRUCTURE
     1 EX0         1 TEMP              0 ****  ****    0 ROOT
