@<TRIPOS>MOLECULE
EX0
   65    70     1     0     0
SMALL
bcc


@<TRIPOS>ATOM
      1 N           -9.1310   -15.6640    38.6910 nb         1 EX0      -0.829000
      2 C           -6.8060   -15.7350    38.0070 ca         1 EX0      -0.263200
      3 O          -10.0420   -13.5720    38.8130 os         1 EX0      -0.417100
      4 C1          -8.0030   -16.3050    38.3960 ca         1 EX0       0.496800
      5 C10         -7.6890   -18.9360    42.6360 ca         1 EX0      -0.123500
      6 C11         -8.7760   -18.3750    43.3040 ca         1 EX0      -0.070300
      7 C12         -9.8260   -17.9790    41.1620 ca         1 EX0      -0.104500
      8 C13         -9.8460   -17.9070    42.5480 ca         1 EX0      -0.123500
      9 C14         -5.7930   -19.1230    37.9950 ca         1 EX0      -0.190200
     10 C15         -4.5430   -19.2840    38.5830 ca         1 EX0      -0.104000
     11 C16         -6.3420   -20.2050    37.3060 ca         1 EX0       0.399200
     12 C17         -3.9380   -20.5150    38.4630 ca         1 EX0       0.015600
     13 C18         -4.5580   -21.5460    37.7790 ca         1 EX0       0.375200
     14 C19         -8.7890   -18.2430    44.8060 c3         1 EX0       0.216100
     15 C2          -6.8010   -14.3290    37.8910 ca         1 EX0       0.811200
     16 C20         -8.7850   -20.6240    45.3520 c5         1 EX0       0.117800
     17 C21         -7.8480   -19.1420    46.8870 c5         1 EX0       0.146500
     18 C22         -8.7830   -21.1180    46.8070 c5         1 EX0       0.156500
     19 C23         -6.7330   -20.1140    47.2730 c5         1 EX0       0.166800
     20 C25         -9.0600   -19.8110    47.5450 c5         1 EX0      -0.117400
     21 C3          -8.9990   -14.3580    38.5590 ca         1 EX0       0.948300
     22 C4          -6.4590   -17.8210    38.0730 cc         1 EX0       0.430400
     23 C5         -11.2310   -14.1410    39.3660 c3         1 EX0       0.154400
     24 C6         -11.1130   -14.3730    40.8570 c3         1 EX0      -0.126100
     25 C7          -8.7130   -18.6070    38.9960 c3         1 EX0       0.104600
     26 C8          -8.7400   -18.5340    40.4990 ca         1 EX0      -0.121300
     27 C9          -7.6720   -19.0150    41.2530 ca         1 EX0      -0.104500
     28 F           -2.7420   -20.7260    39.0190 f          1 EX0      -0.129900
     29 N1          -7.9230   -13.6700    38.1790 nb         1 EX0      -0.840000
     30 N2          -5.8530   -16.6950    37.8140 nd         1 EX0      -0.526100
     31 N3          -7.7790   -17.6470    38.4270 na         1 EX0      -0.239000
     32 N4          -5.7240   -13.6460    37.5050 nv         1 EX0      -0.949500
     33 N5          -5.7400   -21.3800    37.2070 nb         1 EX0      -0.645000
     34 N6          -8.0870   -19.3280    45.4490 n3         1 EX0      -0.725600
     35 N7          -7.4280   -21.4120    47.2700 n3         1 EX0      -0.730600
     36 H1          -6.8580   -19.3260    43.2100 ha         1 EX0       0.139500
     37 H2         -10.6650   -17.5990    40.5920 ha         1 EX0       0.134500
     38 H3         -10.7070   -17.4780    43.0470 ha         1 EX0       0.139500
     39 H4          -4.0680   -18.4760    39.1250 ha         1 EX0       0.171000
     40 H5          -7.2940   -20.1070    36.7960 h4         1 EX0       0.030100
     41 H6          -4.0820   -22.5170    37.6920 h4         1 EX0       0.040100
     42 H7          -8.2920   -17.3060    45.0800 h1         1 EX0       0.039700
     43 H8          -9.8350   -18.1410    45.1390 h1         1 EX0       0.039700
     44 H10         -9.8150   -20.5070    44.9910 h1         1 EX0       0.051700
     45 H11         -7.6410   -18.1000    47.1300 h1         1 EX0       0.078700
     46 H12         -9.4640   -21.9500    46.9920 h1         1 EX0       0.083700
     47 H13         -5.9230   -20.0700    46.5360 h1         1 EX0       0.053200
     48 H14         -6.3060   -19.8890    48.2560 h1         1 EX0       0.053200
     49 H15         -5.8100   -22.7150    47.1260 h1         1 EX0       0.030033
     50 H16         -7.3470   -23.3800    46.5890 h1         1 EX0       0.030033
     51 H17         -6.4590   -22.2520    45.5530 h1         1 EX0       0.030033
     52 H18         -8.9910   -19.9070    48.6290 hc         1 EX0       0.063200
     53 H19        -10.0120   -19.3480    47.2810 hc         1 EX0       0.063200
     54 H20        -12.0080   -13.4060    39.1570 h1         1 EX0       0.060700
     55 H21        -11.4930   -15.0630    38.8450 h1         1 EX0       0.060700
     56 H22        -12.0660   -14.7360    41.2430 hc         1 EX0       0.047367
     57 H23        -10.3540   -15.1190    41.0900 hc         1 EX0       0.047367
     58 H24        -10.8680   -13.4500    41.3830 hc         1 EX0       0.047367
     59 H25         -8.4340   -19.6030    38.6610 h1         1 EX0       0.072200
     60 H26         -9.6990   -18.3960    38.5830 h1         1 EX0       0.072200
     61 H27         -6.8180   -19.4640    40.7590 ha         1 EX0       0.134500
     62 H28         -5.7390   -12.6410    37.4870 hn         1 EX0       0.454300
     63 H29         -4.8530   -14.1130    37.3250 hn         1 EX0       0.454300
     64 H9          -8.2800   -21.3100    44.6670 h1         1 EX0       0.051700
     65 C24         -6.7330   -22.4770    46.5940 c3         1 EX0       0.165100
@<TRIPOS>BOND
     1     1     4 ar  
     2     1    21 ar  
     3     2     4 ar  
     4     2    15 ar  
     5     2    30 1   
     6     3    21 1   
     7     3    23 1   
     8     4    31 1   
     9     5     6 ar  
    10     5    27 ar  
    11     5    36 1   
    12     6     8 ar  
    13     6    14 1   
    14     7     8 ar  
    15     7    26 ar  
    16     7    37 1   
    17     8    38 1   
    18     9    10 ar  
    19     9    11 ar  
    20     9    22 1   
    21    10    12 ar  
    22    10    39 1   
    23    11    33 ar  
    24    11    40 1   
    25    12    13 ar  
    26    12    28 1   
    27    13    33 ar  
    28    13    41 1   
    29    14    34 1   
    30    14    42 1   
    31    14    43 1   
    32    15    29 ar  
    33    15    32 1   
    34    16    18 1   
    35    16    34 1   
    36    16    44 1   
    37    16    64 1   
    38    17    19 1   
    39    17    20 1   
    40    17    34 1   
    41    17    45 1   
    42    18    20 1   
    43    18    35 1   
    44    18    46 1   
    45    19    35 1   
    46    19    47 1   
    47    19    48 1   
    48    20    52 1   
    49    20    53 1   
    50    21    29 ar  
    51    22    30 2   
    52    22    31 1   
    53    23    24 1   
    54    23    54 1   
    55    23    55 1   
    56    24    56 1   
    57    24    57 1   
    58    24    58 1   
    59    25    26 1   
    60    25    31 1   
    61    25    59 1   
    62    25    60 1   
    63    26    27 ar  
    64    27    61 1   
    65    32    62 1   
    66    32    63 1   
    67    35    65 1   
    68    49    65 1   
    69    50    65 1   
    70    51    65 1   
@<TRIPOS>SUBSTRUCTURE
     1 EX0         1 TEMP              0 ****  ****    0 ROOT
