@<TRIPOS>MOLECULE
EX1
   86    91     1     0     0
SMALL
abcg2


@<TRIPOS>ATOM
      1 C           15.7130    -4.0820     0.5010 c6         1 EX1       0.189500
      2 C1          17.1470    -4.5560     0.7650 c6         1 EX1      -0.101900
      3 C2          18.0390    -4.3610    -0.4580 c6         1 EX1       0.095500
      4 C14         16.5230    -7.9750    -5.6940 ca         1 EX1       0.313000
      5 N1          13.8530   -13.2490    -8.3390 n          1 EX1      -0.296000
      6 C15         16.6900    -8.7180    -4.5260 ca         1 EX1      -0.128000
      7 C16         17.1830    -8.1200    -3.3710 ca         1 EX1      -0.068000
      8 C17         15.5750    -9.6980    -7.2580 ca         1 EX1       0.393900
      9 C18         14.5290   -10.9500    -8.8370 ca         1 EX1       0.137900
     10 C19         14.5510   -12.0650    -8.0060 ca         1 EX1      -0.104400
     11 C20         15.2020   -11.8960    -6.7790 ca         1 EX1       0.378900
     12 C21         16.1910   -13.9900    -6.5350 ca         1 EX1       0.303000
     13 C22         17.4730   -14.2450    -6.0440 ca         1 EX1      -0.145000
     14 N2          15.3550   -13.0000    -5.9300 na         1 EX1      -0.804100
     15 C3          16.1450    -4.5610    -1.9650 c6         1 EX1       0.095500
     16 C13         16.8750    -6.6030    -5.6760 ca         1 EX1       0.074100
     17 C4          15.1980    -4.7470    -0.7810 c6         1 EX1      -0.101900
     18 C5          17.0030    -4.5520    -6.9120 c3         1 EX1       0.155900
     19 C11         17.4960    -6.7680    -3.3490 ca         1 EX1      -0.137600
     20 C12         17.3440    -6.0110    -4.5160 ca         1 EX1      -0.140000
     21 C23         18.2840   -15.1930    -6.6510 ca         1 EX1      -0.076000
     22 C24         17.8340   -15.8900    -7.7700 ca         1 EX1      -0.128000
     23 C25         16.5660   -15.6320    -8.2670 ca         1 EX1      -0.050000
     24 C26         15.7390   -14.6800    -7.6650 ca         1 EX1      -0.145600
     25 C27         14.3710   -14.5060    -8.2360 c          1 EX1       0.589600
     26 C28         12.5100   -13.1160    -8.9130 c3         1 EX1       0.091300
     27 C29         15.4210   -12.7700    -4.4660 c3         1 EX1       0.235500
     28 C30         15.3260    -3.8320     2.9070 c6         1 EX1       0.163800
     29 C31         14.2400   -11.9020    -4.0290 c3         1 EX1      -0.101100
     30 C32         15.3460   -14.1040    -3.7260 c3         1 EX1      -0.101100
     31 C33         14.4060    -4.1890     4.0610 c6         1 EX1       0.160800
     32 C35         12.5480    -4.2250     2.5790 c6         1 EX1       0.160800
     33 C36         13.4640    -3.8690     1.4220 c6         1 EX1       0.163800
     34 N3          15.7110   -10.7250    -6.4180 nb         1 EX1      -0.271000
     35 N4          15.0300    -9.7700    -8.4860 nb         1 EX1      -0.233000
     36 N6          17.4890    -5.0280    -1.6330 n          1 EX1      -0.404800
     37 N7          14.8230    -4.3700     1.6400 n3         1 EX1      -0.722600
     38 N8          13.0560    -3.6910     3.8350 n3         1 EX1      -0.718600
     39 H           15.7480    -2.9900     0.3280 h1         1 EX1       0.019700
     40 H3          17.1300    -5.6140     1.0420 hc         1 EX1       0.057450
     41 H4          17.5970    -4.0040     1.5900 hc         1 EX1       0.057450
     42 H5          19.0350    -4.7510    -0.2730 h1         1 EX1       0.057700
     43 H6          18.1220    -3.2950    -0.6910 h1         1 EX1       0.057700
     44 H21         16.4310    -9.7620    -4.5280 ha         1 EX1       0.154000
     45 H16         17.3100    -8.7150    -2.4770 ha         1 EX1       0.131000
     46 H24         14.0630   -11.0080    -9.8150 h4         1 EX1       0.032100
     47 H25         17.8360   -13.6980    -5.1860 ha         1 EX1       0.125000
     48 H7          16.2070    -3.5040    -2.2390 h1         1 EX1       0.057700
     49 H8          15.7670    -5.1050    -2.8220 h1         1 EX1       0.057700
     50 H9          14.2310    -4.3400    -1.0750 hc         1 EX1       0.057450
     51 H10         15.0630    -5.8170    -0.5920 hc         1 EX1       0.057450
     52 H51         16.7850    -4.2420    -7.9300 h1         1 EX1       0.044033
     53 H52         16.3790    -3.9930    -6.2110 h1         1 EX1       0.044033
     54 H53         18.0570    -4.3740    -6.6880 h1         1 EX1       0.044033
     55 H20         17.6000    -4.9620    -4.5080 ha         1 EX1       0.124000
     56 H26         19.2730   -15.3790    -6.2540 ha         1 EX1       0.118000
     57 H27         18.4660   -16.6260    -8.2480 ha         1 EX1       0.122000
     58 H28         16.1950   -16.1670    -9.1300 ha         1 EX1       0.134000
     59 H31         11.8770   -13.9100    -8.5260 h1         1 EX1       0.048367
     60 H30         12.1040   -12.1510    -8.6210 h1         1 EX1       0.048367
     61 H29         12.5330   -13.1870   -10.0020 h1         1 EX1       0.048367
     62 H32         16.3530   -12.2580    -4.2040 h1         1 EX1       0.045700
     63 H301        16.3060    -4.2510     3.1200 h1         1 EX1       0.038450
     64 H302        15.4340    -2.7350     2.8530 h1         1 EX1       0.038450
     65 H312        14.2740   -11.7800    -2.9460 hc         1 EX1       0.046200
     66 H313        14.2580   -10.9130    -4.4800 hc         1 EX1       0.046200
     67 H311        13.3000   -12.3910    -4.2910 hc         1 EX1       0.046200
     68 H321        15.3380   -13.9100    -2.6530 hc         1 EX1       0.046200
     69 H322        14.4230   -14.6270    -3.9870 hc         1 EX1       0.046200
     70 H323        16.1840   -14.7620    -3.9410 hc         1 EX1       0.046200
     71 H331        14.4030    -5.2870     4.1920 h1         1 EX1       0.038450
     72 H33         14.7970    -3.7490     4.9810 h1         1 EX1       0.038450
     73 H35         11.5550    -3.8090     2.3920 h1         1 EX1       0.038450
     74 H351        12.4440    -5.3240     2.6320 h1         1 EX1       0.038450
     75 H361        13.4700    -2.7720     1.2890 h1         1 EX1       0.038450
     76 H36         13.0500    -4.3090     0.5180 h1         1 EX1       0.038450
     77 C6          18.0560    -6.1660    -2.0990 c          1 EX1       0.615700
     78 C37         12.1730    -4.0030     4.9470 c3         1 EX1       0.152100
     79 N5          16.0200    -8.4560    -6.8990 nu         1 EX1      -0.919900
     80 O2          16.7020    -5.9470    -6.8560 os         1 EX1      -0.369100
     81 O3          19.0260    -6.6990    -1.5450 o          1 EX1      -0.600100
     82 O1          13.7380   -15.4850    -8.6360 o          1 EX1      -0.556000
     83 H37         12.5660    -3.5620     5.8650 h1         1 EX1       0.031700
     84 H372        11.1820    -3.5880     4.7590 h1         1 EX1       0.031700
     85 H371        12.0660    -5.0890     5.1070 h1         1 EX1       0.031700
     86 H23         15.9090    -7.7590    -7.6210 hn         1 EX1       0.531000
@<TRIPOS>BOND
     1     1     2 1   
     2     1    17 1   
     3     1    37 1   
     4     1    39 1   
     5     2     3 1   
     6     2    40 1   
     7     2    41 1   
     8     3    36 1   
     9     3    42 1   
    10     3    43 1   
    11     4     6 ar  
    12     4    16 ar  
    13     4    79 1   
    14     5    10 1   
    15     5    25 1   
    16     5    26 1   
    17     6     7 ar  
    18     6    44 1   
    19     7    19 ar  
    20     7    45 1   
    21     8    34 ar  
    22     8    35 ar  
    23     8    79 1   
    24     9    10 ar  
    25     9    35 ar  
    26     9    46 1   
    27    10    11 ar  
    28    11    14 1   
    29    11    34 ar  
    30    12    13 ar  
    31    12    14 1   
    32    12    24 ar  
    33    13    21 ar  
    34    13    47 1   
    35    14    27 1   
    36    15    17 1   
    37    15    36 1   
    38    15    48 1   
    39    15    49 1   
    40    16    20 ar  
    41    16    80 1   
    42    17    50 1   
    43    17    51 1   
    44    18    52 1   
    45    18    53 1   
    46    18    54 1   
    47    18    80 1   
    48    19    20 ar  
    49    19    77 1   
    50    20    55 1   
    51    21    22 ar  
    52    21    56 1   
    53    22    23 ar  
    54    22    57 1   
    55    23    24 ar  
    56    23    58 1   
    57    24    25 1   
    58    25    82 2   
    59    26    59 1   
    60    26    60 1   
    61    26    61 1   
    62    27    29 1   
    63    27    30 1   
    64    27    62 1   
    65    28    31 1   
    66    28    37 1   
    67    28    63 1   
    68    28    64 1   
    69    29    65 1   
    70    29    66 1   
    71    29    67 1   
    72    30    68 1   
    73    30    69 1   
    74    30    70 1   
    75    31    38 1   
    76    31    71 1   
    77    31    72 1   
    78    32    33 1   
    79    32    38 1   
    80    32    73 1   
    81    32    74 1   
    82    33    37 1   
    83    33    75 1   
    84    33    76 1   
    85    36    77 1   
    86    38    78 1   
    87    77    81 2   
    88    78    83 1   
    89    78    84 1   
    90    78    85 1   
    91    79    86 1   
@<TRIPOS>SUBSTRUCTURE
     1 EX1         1 TEMP              0 ****  ****    0 ROOT
