@<TRIPOS>MOLECULE
EX1
   86    91     1     0     0
SMALL
No Charge or Current Charge


@<TRIPOS>ATOM
      1 C           15.7230    -3.9490     0.5560 c6         1 EX1       0.189500
      2 C1          17.2700    -4.1440     0.5670 c6         1 EX1      -0.101900
      3 C2          17.8920    -3.9250    -0.8290 c6         1 EX1       0.095500
      4 C14         16.5470    -7.9930    -5.9160 ca         1 EX1       0.313000
      5 N1          14.6040   -13.6840    -8.7200 n          1 EX1      -0.296000
      6 C15         17.1830    -8.7040    -4.8810 ca         1 EX1      -0.128000
      7 C16         17.6230    -8.0440    -3.7220 ca         1 EX1      -0.068000
      8 C17         15.7300    -9.9030    -7.4610 ca         1 EX1       0.393900
      9 C18         15.0070   -11.2750    -9.1320 ca         1 EX1       0.137900
     10 C19         14.8840   -12.3480    -8.2210 ca         1 EX1      -0.104400
     11 C20         15.3170   -12.0920    -6.8980 ca         1 EX1       0.378900
     12 C21         16.3160   -14.0860    -6.1670 ca         1 EX1       0.303000
     13 C22         17.2810   -14.1950    -5.1510 ca         1 EX1      -0.145000
     14 N2          15.3130   -13.1550    -6.0210 na         1 EX1      -0.804100
     15 C3          15.8070    -4.6390    -1.9350 c6         1 EX1       0.095500
     16 C13         16.3920    -6.5880    -5.7920 ca         1 EX1       0.074100
     17 C4          15.1270    -4.8580    -0.5640 c6         1 EX1      -0.101900
     18 C5          15.5870    -4.4680    -6.8040 c3         1 EX1       0.155900
     19 C11         17.4320    -6.6570    -3.5650 ca         1 EX1      -0.137600
     20 C12         16.8370    -5.9290    -4.6220 ca         1 EX1      -0.140000
     21 C23         18.3140   -15.1380    -5.2470 ca         1 EX1      -0.076000
     22 C24         18.3770   -15.9810    -6.3650 ca         1 EX1      -0.128000
     23 C25         17.4140   -15.8720    -7.3830 ca         1 EX1      -0.050000
     24 C26         16.3780   -14.9100    -7.3070 ca         1 EX1      -0.145600
     25 C27         15.3520   -14.8650    -8.4190 c          1 EX1       0.589600
     26 C28         13.5800   -13.7920    -9.7890 c3         1 EX1       0.091300
     27 C29         14.2220   -13.3630    -5.0420 c3         1 EX1       0.235500
     28 C30         15.6850    -3.3760     2.9980 c6         1 EX1       0.163800
     29 C31         14.1870   -12.2620    -3.9610 c3         1 EX1      -0.101100
     30 C32         12.8510   -13.5360    -5.7280 c3         1 EX1      -0.101100
     31 C33         15.0270    -3.6320     4.3920 c6         1 EX1       0.160800
     32 C35         12.9610    -4.3190     3.3010 c6         1 EX1       0.160800
     33 C36         13.6090    -4.0660     1.9020 c6         1 EX1       0.163800
     34 N3          15.7120   -10.8610    -6.5260 nb         1 EX1      -0.271000
     35 N4          15.4020   -10.0480    -8.7510 nb         1 EX1      -0.233000
     36 N6          17.2810    -4.8070    -1.8520 n          1 EX1      -0.404800
     37 N7          15.1060    -4.2300     1.9020 n3         1 EX1      -0.722600
     38 N8          13.5470    -3.4540     4.3650 n3         1 EX1      -0.718600
     39 H           15.5200    -2.9030     0.2800 h1         1 EX1       0.019700
     40 H3          17.5170    -5.1520     0.9250 hc         1 EX1       0.057450
     41 H4          17.7520    -3.4350     1.2510 hc         1 EX1       0.057450
     42 H5          18.9780    -4.0850    -0.7800 h1         1 EX1       0.057700
     43 H6          17.7400    -2.8780    -1.1320 h1         1 EX1       0.057700
     44 H21         17.3610    -9.7690    -4.9690 ha         1 EX1       0.154000
     45 H16         18.1110    -8.6190    -2.9360 ha         1 EX1       0.131000
     46 H24         14.7860   -11.3960   -10.1910 h4         1 EX1       0.032100
     47 H25         17.2260   -13.5430    -4.2840 ha         1 EX1       0.125000
     48 H7          15.5840    -3.6260    -2.2990 h1         1 EX1       0.057700
     49 H8          15.3650    -5.3470    -2.6480 h1         1 EX1       0.057700
     50 H9          14.0570    -4.6630    -0.7000 hc         1 EX1       0.057450
     51 H10         15.2240    -5.9130    -0.2740 hc         1 EX1       0.057450
     52 H51         15.1030    -4.1320    -7.7290 h1         1 EX1       0.044033
     53 H52         14.9370    -4.1940    -5.9620 h1         1 EX1       0.044033
     54 H53         16.5380    -3.9300    -6.7050 h1         1 EX1       0.044033
     55 H20         16.7460    -4.8510    -4.5290 ha         1 EX1       0.124000
     56 H26         19.0580   -15.2190    -4.4570 ha         1 EX1       0.118000
     57 H27         19.1710   -16.7200    -6.4440 ha         1 EX1       0.122000
     58 H28         17.4830   -16.5380    -8.2410 ha         1 EX1       0.134000
     59 H31         12.9550   -14.6790    -9.6250 h1         1 EX1       0.048367
     60 H30         12.9260   -12.9100    -9.7810 h1         1 EX1       0.048367
     61 H29         14.0710   -13.8690   -10.7670 h1         1 EX1       0.048367
     62 H32         14.4290   -14.3070    -4.5180 h1         1 EX1       0.045700
     63 H301        16.7590    -3.5660     3.1200 h1         1 EX1       0.038450
     64 H302        15.5700    -2.3100     2.7470 h1         1 EX1       0.038450
     65 H312        13.4540   -12.5110    -3.1850 hc         1 EX1       0.046200
     66 H313        15.1680   -12.1610    -3.4820 hc         1 EX1       0.046200
     67 H311        13.9100   -11.2930    -4.3920 hc         1 EX1       0.046200
     68 H321        12.0760   -13.7580    -4.9860 hc         1 EX1       0.046200
     69 H322        12.5610   -12.6250    -6.2650 hc         1 EX1       0.046200
     70 H323        12.8820   -14.3650    -6.4440 hc         1 EX1       0.046200
     71 H331        15.2800    -4.6530     4.7140 h1         1 EX1       0.038450
     72 H33         15.4790    -2.9450     5.1230 h1         1 EX1       0.038450
     73 H35         11.8780    -4.1430     3.2220 h1         1 EX1       0.038450
     74 H351        13.0950    -5.3800     3.5600 h1         1 EX1       0.038450
     75 H361        13.3400    -3.0520     1.5700 h1         1 EX1       0.038450
     76 H36         13.1350    -4.7720     1.2070 h1         1 EX1       0.038450
     77 C6          17.9390    -5.9740    -2.3090 c          1 EX1       0.615700
     78 C37         12.9200    -3.6670     5.6870 c3         1 EX1       0.152100
     79 N5          16.0970    -8.6160    -7.0950 nu         1 EX1      -0.919900
     80 O2          15.8030    -5.8910    -6.8420 os         1 EX1      -0.369100
     81 O3          18.9540    -6.3790    -1.7530 o          1 EX1      -0.600100
     82 O1          15.1500   -15.8870    -9.0680 o          1 EX1      -0.556000
     83 H37         13.3450    -2.9820     6.4330 h1         1 EX1       0.031700
     84 H372        11.8380    -3.4840     5.6370 h1         1 EX1       0.031700
     85 H371        13.0790    -4.6970     6.0350 h1         1 EX1       0.031700
     86 H23         15.8610    -7.9280    -7.8120 hn         1 EX1       0.531000
@<TRIPOS>BOND
     1     1     2 1   
     2     1    17 1   
     3     1    37 1   
     4     1    39 1   
     5     2     3 1   
     6     2    40 1   
     7     2    41 1   
     8     3    36 1   
     9     3    42 1   
    10     3    43 1   
    11     4     6 ar  
    12     4    16 ar  
    13     4    79 1   
    14     5    10 1   
    15     5    25 1   
    16     5    26 1   
    17     6     7 ar  
    18     6    44 1   
    19     7    19 ar  
    20     7    45 1   
    21     8    34 ar  
    22     8    35 ar  
    23     8    79 1   
    24     9    10 ar  
    25     9    35 ar  
    26     9    46 1   
    27    10    11 ar  
    28    11    14 1   
    29    11    34 ar  
    30    12    13 ar  
    31    12    14 1   
    32    12    24 ar  
    33    13    21 ar  
    34    13    47 1   
    35    14    27 1   
    36    15    17 1   
    37    15    36 1   
    38    15    48 1   
    39    15    49 1   
    40    16    20 ar  
    41    16    80 1   
    42    17    50 1   
    43    17    51 1   
    44    18    52 1   
    45    18    53 1   
    46    18    54 1   
    47    18    80 1   
    48    19    20 ar  
    49    19    77 1   
    50    20    55 1   
    51    21    22 ar  
    52    21    56 1   
    53    22    23 ar  
    54    22    57 1   
    55    23    24 ar  
    56    23    58 1   
    57    24    25 1   
    58    25    82 2   
    59    26    59 1   
    60    26    60 1   
    61    26    61 1   
    62    27    29 1   
    63    27    30 1   
    64    27    62 1   
    65    28    31 1   
    66    28    37 1   
    67    28    63 1   
    68    28    64 1   
    69    29    65 1   
    70    29    66 1   
    71    29    67 1   
    72    30    68 1   
    73    30    69 1   
    74    30    70 1   
    75    31    38 1   
    76    31    71 1   
    77    31    72 1   
    78    32    33 1   
    79    32    38 1   
    80    32    73 1   
    81    32    74 1   
    82    33    37 1   
    83    33    75 1   
    84    33    76 1   
    85    36    77 1   
    86    38    78 1   
    87    77    81 2   
    88    78    83 1   
    89    78    84 1   
    90    78    85 1   
    91    79    86 1   
@<TRIPOS>SUBSTRUCTURE
     1 EX1         1 TEMP              0 ****  ****    0 ROOT
