@<TRIPOS>MOLECULE
EX3
   66    71     1     0     0
SMALL
No Charge or Current Charge


@<TRIPOS>ATOM
      1 N          103.8330    94.4850   121.5260 nb         1 EX3      -0.272000
      2 C          106.0410    94.9080   122.3020 ca         1 EX3      -0.076600
      3 O          102.1510    94.0790   123.1290 os         1 EX3      -0.436300
      4 C1         105.1290    94.7590   121.2900 ca         1 EX3       0.138500
      5 C10        107.5170    91.6490   117.8810 ca         1 EX3      -0.101500
      6 C11        107.8170    91.9240   116.5330 ca         1 EX3      -0.073300
      7 C12        106.4110    93.9160   116.6480 ca         1 EX3      -0.094500
      8 C13        107.2520    93.0580   115.9200 ca         1 EX3      -0.101500
      9 C14        108.2730    95.4420   119.5580 ca         1 EX3      -0.125900
     10 C15        109.5740    94.9790   119.8550 ca         1 EX3      -0.076000
     11 C16        108.0860    96.2030   118.3860 ca         1 EX3       0.341900
     12 C17        110.6040    95.2430   118.9400 ca         1 EX3       0.113000
     13 C18        110.3150    95.9860   117.7790 ca         1 EX3       0.313900
     14 C19        108.7620    91.0180   115.7510 c3         1 EX3       0.217100
     15 C2         105.6000    94.7650   123.6310 ca         1 EX3       0.236300
     16 C20        111.0020    90.8240   114.6250 c5         1 EX3       0.122800
     17 C21        110.8540    92.2270   116.5240 c5         1 EX3       0.143500
     18 C22        112.3120    90.8660   115.5070 c5         1 EX3       0.159500
     19 C23        111.9460    93.1740   115.8960 c5         1 EX3       0.169800
     20 C25        111.7050    91.0000   116.9180 c5         1 EX3      -0.115400
     21 C26        106.5370    94.9090   124.8180 c3         1 EX3      -0.150400
     22 C3         103.4670    94.3600   122.8280 ca         1 EX3       0.384300
     23 C4         107.1700    95.2230   120.4940 cc         1 EX3       0.454400
     24 C5         101.1620    93.9110   122.0960 c3         1 EX3       0.175600
     25 C6          99.8210    93.6110   122.7840 c3         1 EX3      -0.098100
     26 C7         105.2750    94.6310   118.8090 c3         1 EX3       0.127900
     27 C8         106.1290    93.6550   118.0020 ca         1 EX3      -0.124300
     28 C9         106.6760    92.5060   118.6100 ca         1 EX3      -0.094500
     29 F          111.8570    94.7910   119.1770 f          1 EX3      -0.166000
     30 N1         104.3030    94.4900   123.8860 nb         1 EX3      -0.219000
     31 N2         107.3240    95.1870   121.8290 nd         1 EX3      -0.524100
     32 N3         105.8420    94.9400   120.1390 na         1 EX3      -0.274300
     33 N4         109.0790    96.4730   117.5030 nb         1 EX3      -0.646000
     34 N5         110.0330    91.6900   115.3830 n3         1 EX3      -0.729600
     35 N6         112.9700    92.2080   115.3800 n3         1 EX3      -0.733600
     36 H1         107.9460    90.7770   118.3690 ha         1 EX3       0.124500
     37 H2         105.9980    94.7970   116.1610 ha         1 EX3       0.118500
     38 H3         107.4810    93.2810   114.8800 ha         1 EX3       0.124500
     39 H4         109.7780    94.4130   120.7610 ha         1 EX3       0.152000
     40 H5         107.1150    96.6310   118.1450 h4         1 EX3       0.028100
     41 H6         111.0980    96.2080   117.0540 h4         1 EX3       0.039100
     42 H7         108.9640    90.1150   116.3420 h1         1 EX3       0.040200
     43 H8         108.2450    90.6880   114.8390 h1         1 EX3       0.040200
     44 H10        110.6350    89.7910   114.5440 h1         1 EX3       0.048200
     45 H11        110.2760    92.6910   117.3370 h1         1 EX3       0.083700
     46 H12        112.9880    90.0100   115.3650 h1         1 EX3       0.084700
     47 H13        111.5170    93.8070   115.1060 h1         1 EX3       0.051700
     48 H14        112.3870    93.8350   116.6540 h1         1 EX3       0.051700
     49 H15        114.1210    93.5100   114.1550 h1         1 EX3       0.029367
     50 H16        114.3320    91.7810   113.8020 h1         1 EX3       0.029367
     51 H17        112.8500    92.6220   113.2870 h1         1 EX3       0.029367
     52 H18        112.4480    91.2150   117.6950 hc         1 EX3       0.064200
     53 H19        111.1180    90.1290   117.2300 hc         1 EX3       0.064200
     54 H20        106.0150    94.7640   125.7710 hc         1 EX3       0.065033
     55 H21        107.3470    94.1720   124.7640 hc         1 EX3       0.065033
     56 H22        106.9920    95.9060   124.8330 hc         1 EX3       0.065033
     57 H23        101.0660    94.8240   121.4920 h1         1 EX3       0.047700
     58 H24        101.4260    93.0780   121.4310 h1         1 EX3       0.047700
     59 H25         99.0330    93.4740   122.0350 hc         1 EX3       0.049367
     60 H26         99.8900    92.6940   123.3810 hc         1 EX3       0.049367
     61 H27         99.5300    94.4380   123.4420 hc         1 EX3       0.049367
     62 H28        105.1460    95.5690   118.2550 h1         1 EX3       0.076700
     63 H29        104.2760    94.1930   118.9310 h1         1 EX3       0.076700
     64 H30        106.4650    92.2830   119.6540 ha         1 EX3       0.118500
     65 H9         111.1720    91.1880   113.6030 h1         1 EX3       0.048200
     66 C24        113.5990    92.5470   114.0860 c3         1 EX3       0.168100
@<TRIPOS>BOND
     1     1     4 ar  
     2     1    22 ar  
     3     2     4 ar  
     4     2    15 ar  
     5     2    31 1   
     6     3    22 1   
     7     3    24 1   
     8     4    32 1   
     9     5     6 ar  
    10     5    28 ar  
    11     5    36 1   
    12     6     8 ar  
    13     6    14 1   
    14     7     8 ar  
    15     7    27 ar  
    16     7    37 1   
    17     8    38 1   
    18     9    10 ar  
    19     9    11 ar  
    20     9    23 1   
    21    10    12 ar  
    22    10    39 1   
    23    11    33 ar  
    24    11    40 1   
    25    12    13 ar  
    26    12    29 1   
    27    13    33 ar  
    28    13    41 1   
    29    14    34 1   
    30    14    42 1   
    31    14    43 1   
    32    15    21 1   
    33    15    30 ar  
    34    16    18 1   
    35    16    34 1   
    36    16    44 1   
    37    16    65 1   
    38    17    19 1   
    39    17    20 1   
    40    17    34 1   
    41    17    45 1   
    42    18    20 1   
    43    18    35 1   
    44    18    46 1   
    45    19    35 1   
    46    19    47 1   
    47    19    48 1   
    48    20    52 1   
    49    20    53 1   
    50    21    54 1   
    51    21    55 1   
    52    21    56 1   
    53    22    30 ar  
    54    23    31 2   
    55    23    32 1   
    56    24    25 1   
    57    24    57 1   
    58    24    58 1   
    59    25    59 1   
    60    25    60 1   
    61    25    61 1   
    62    26    27 1   
    63    26    32 1   
    64    26    62 1   
    65    26    63 1   
    66    27    28 ar  
    67    28    64 1   
    68    35    66 1   
    69    49    66 1   
    70    50    66 1   
    71    51    66 1   
@<TRIPOS>SUBSTRUCTURE
     1 EX3         1 TEMP              0 ****  ****    0 ROOT
