@<TRIPOS>MOLECULE
EX3
   66    71     1     0     0
SMALL
abcg2


@<TRIPOS>ATOM
      1 N          103.8650    94.4940   121.3880 nb         1 EX3      -0.272000
      2 C          106.0150    94.9830   122.3820 ca         1 EX3      -0.076600
      3 O          102.1980    94.0240   122.8740 os         1 EX3      -0.436300
      4 C1         105.1460    94.8140   121.3080 ca         1 EX3       0.138500
      5 C10        107.3800    91.5860   118.1210 ca         1 EX3      -0.101500
      6 C11        108.0250    91.8840   116.9240 ca         1 EX3      -0.073300
      7 C12        106.9510    94.0450   116.9450 ca         1 EX3      -0.094500
      8 C13        107.7950    93.1260   116.3410 ca         1 EX3      -0.101500
      9 C14        108.2810    95.5740   119.7250 ca         1 EX3      -0.125900
     10 C15        109.4660    94.8630   119.8700 ca         1 EX3      -0.076000
     11 C16        108.2040    96.5390   118.7230 ca         1 EX3       0.341900
     12 C17        110.4840    95.1490   118.9890 ca         1 EX3       0.113000
     13 C18        110.3230    96.1060   118.0030 ca         1 EX3       0.313900
     14 C19        108.9390    90.8760   116.2750 c3         1 EX3       0.217100
     15 C2         105.4690    94.8100   123.6540 ca         1 EX3       0.236300
     16 C20        110.8890    90.5810   114.8220 c5         1 EX3       0.122800
     17 C21        111.0310    92.1340   116.5570 c5         1 EX3       0.143500
     18 C22        112.3180    90.9070   115.2810 c5         1 EX3       0.159500
     19 C23        111.8180    93.1440   115.7230 c5         1 EX3       0.169800
     20 C25        112.0910    91.0530   116.7840 c5         1 EX3      -0.115400
     21 C26        106.2810    94.9590   124.8940 c3         1 EX3      -0.150400
     22 C3         103.4610    94.3500   122.6360 ca         1 EX3       0.384300
     23 C4         107.1630    95.3070   120.6320 cc         1 EX3       0.454400
     24 C5         101.3170    93.8450   121.7610 c3         1 EX3       0.175600
     25 C6          99.9650    93.4520   122.3060 c3         1 EX3      -0.098100
     26 C7         105.4490    94.7730   118.8250 c3         1 EX3       0.127900
     27 C8         106.3170    93.7480   118.1450 ca         1 EX3      -0.124300
     28 C9         106.5320    92.5020   118.7240 ca         1 EX3      -0.094500
     29 F          111.6430    94.4890   119.0780 f          1 EX3      -0.166000
     30 N1         104.1860    94.4950   123.7520 nb         1 EX3      -0.219000
     31 N2         107.2720    95.2860   121.9300 nd         1 EX3      -0.524100
     32 N3         105.8880    95.0290   120.1890 na         1 EX3      -0.274300
     33 N4         109.1970    96.7950   117.8870 nb         1 EX3      -0.646000
     34 N5         110.0740    91.4990   115.6370 n3         1 EX3      -0.729600
     35 N6         112.7010    92.2730   114.9300 n3         1 EX3      -0.733600
     36 H1         107.5490    90.6260   118.5950 ha         1 EX3       0.124500
     37 H2         106.8000    95.0140   116.4860 ha         1 EX3       0.118500
     38 H3         108.2990    93.3840   115.4190 ha         1 EX3       0.124500
     39 H4         109.5780    94.1030   120.6320 ha         1 EX3       0.152000
     40 H5         107.3070    97.1370   118.6060 h4         1 EX3       0.028100
     41 H6         111.1260    96.3220   117.3070 h4         1 EX3       0.039100
     42 H7         109.2180    90.1110   117.0200 h1         1 EX3       0.040200
     43 H8         108.3790    90.3390   115.5020 h1         1 EX3       0.040200
     44 H10        110.6600    89.5280   115.0300 h1         1 EX3       0.048200
     45 H11        110.5360    92.5530   117.4310 h1         1 EX3       0.083700
     46 H12        113.0650    90.1810   114.9550 h1         1 EX3       0.084700
     47 H13        111.1350    93.7320   115.1010 h1         1 EX3       0.051700
     48 H14        112.3940    93.8390   116.3440 h1         1 EX3       0.051700
     49 H15        113.1950    93.5870   113.3960 h1         1 EX3       0.029367
     50 H16        113.4710    91.8900   113.0340 h1         1 EX3       0.029367
     51 H17        111.8290    92.5490   112.9880 h1         1 EX3       0.029367
     52 H18        112.9750    91.3970   117.3200 hc         1 EX3       0.064200
     53 H19        111.7090    90.1500   117.2630 hc         1 EX3       0.064200
     54 H20        105.6550    94.8910   125.7800 hc         1 EX3       0.065033
     55 H21        107.0430    94.1800   124.9440 hc         1 EX3       0.065033
     56 H22        106.8040    95.9150   124.8990 hc         1 EX3       0.065033
     57 H23        101.2530    94.7720   121.1860 h1         1 EX3       0.047700
     58 H24        101.7100    93.0730   121.0960 h1         1 EX3       0.047700
     59 H25         99.2720    93.3150   121.4760 hc         1 EX3       0.049367
     60 H26        100.0120    92.5140   122.8590 hc         1 EX3       0.049367
     61 H27         99.5550    94.2220   122.9600 hc         1 EX3       0.049367
     62 H28        105.4270    95.7030   118.2560 h1         1 EX3       0.076700
     63 H29        104.4160    94.4290   118.9000 h1         1 EX3       0.076700
     64 H30        106.0530    92.2430   119.6620 ha         1 EX3       0.118500
     65 H9         110.7330    90.7430   113.7520 h1         1 EX3       0.048200
     66 C24        112.7880    92.5840   113.5280 c3         1 EX3       0.168100
@<TRIPOS>BOND
     1     1     4 ar  
     2     1    22 ar  
     3     2     4 ar  
     4     2    15 ar  
     5     2    31 1   
     6     3    22 1   
     7     3    24 1   
     8     4    32 1   
     9     5     6 ar  
    10     5    28 ar  
    11     5    36 1   
    12     6     8 ar  
    13     6    14 1   
    14     7     8 ar  
    15     7    27 ar  
    16     7    37 1   
    17     8    38 1   
    18     9    10 ar  
    19     9    11 ar  
    20     9    23 1   
    21    10    12 ar  
    22    10    39 1   
    23    11    33 ar  
    24    11    40 1   
    25    12    13 ar  
    26    12    29 1   
    27    13    33 ar  
    28    13    41 1   
    29    14    34 1   
    30    14    42 1   
    31    14    43 1   
    32    15    21 1   
    33    15    30 ar  
    34    16    18 1   
    35    16    34 1   
    36    16    44 1   
    37    16    65 1   
    38    17    19 1   
    39    17    20 1   
    40    17    34 1   
    41    17    45 1   
    42    18    20 1   
    43    18    35 1   
    44    18    46 1   
    45    19    35 1   
    46    19    47 1   
    47    19    48 1   
    48    20    52 1   
    49    20    53 1   
    50    21    54 1   
    51    21    55 1   
    52    21    56 1   
    53    22    30 ar  
    54    23    31 2   
    55    23    32 1   
    56    24    25 1   
    57    24    57 1   
    58    24    58 1   
    59    25    59 1   
    60    25    60 1   
    61    25    61 1   
    62    26    27 1   
    63    26    32 1   
    64    26    62 1   
    65    26    63 1   
    66    27    28 ar  
    67    28    64 1   
    68    35    66 1   
    69    49    66 1   
    70    50    66 1   
    71    51    66 1   
@<TRIPOS>SUBSTRUCTURE
     1 EX3         1 TEMP              0 ****  ****    0 ROOT
