@<TRIPOS>MOLECULE
EX4
   74    79     1     0     0
SMALL
No Charge or Current Charge


@<TRIPOS>ATOM
      1 C7          -3.1300    -1.6330    -0.6170 cc         1 EX4      -0.206000
      2 C6          -2.8900    -0.3110    -0.3450 cd         1 EX4       0.290500
      3 C1           2.7910    -1.4890    -1.3260 c6         1 EX4       0.217300
      4 N1          -1.5460    -0.1020    -0.1260 nd         1 EX4      -0.671000
      5 C5          -0.9560    -1.2820    -0.2530 cc         1 EX4       0.413800
      6 C4           0.5350    -1.5490    -0.1140 c6         1 EX4      -0.084000
      7 C3           1.1780    -0.6910     1.0140 c6         1 EX4      -0.082900
      8 C2           2.7040    -0.9320     1.0950 c6         1 EX4       0.217300
      9 C28          6.1970     3.6860     0.6800 c          1 EX4       0.576000
     10 N6           6.9300     2.6300     0.1970 ns         1 EX4      -0.323900
     11 C23          6.4450     1.3440    -0.0450 ca         1 EX4       0.266900
     12 N5           7.3660     0.4190    -0.3560 nb         1 EX4      -0.252000
     13 C22          6.8880    -0.8170    -0.6020 ca         1 EX4       0.184900
     14 N4           5.5960    -1.2010    -0.5650 nb         1 EX4      -0.279000
     15 C27          4.7680     3.3500     1.1360 c6         1 EX4      -0.165400
     16 C25          4.0880     2.2150     0.3180 c6         1 EX4       0.012600
     17 C26          3.5040     2.7540    -1.0130 c3         1 EX4      -0.093100
     18 C24          5.0730     1.0700     0.0310 ca         1 EX4      -0.269300
     19 C21          4.6870    -0.2570    -0.2460 ca         1 EX4       0.411900
     20 N            3.3420    -0.6620    -0.2190 nh         1 EX4      -0.781300
     21 C            1.2640    -1.2710    -1.4570 c6         1 EX4      -0.082900
     22 N2          -1.8990    -2.2500    -0.5660 na         1 EX4      -0.157500
     23 C8          -1.6540    -3.6840    -0.8040 c3         1 EX4       0.067600
     24 C9          -1.6460    -4.5150     0.4990 c3         1 EX4       0.148800
     25 N3          -1.3000    -5.9420     0.3050 n3         1 EX4      -0.722600
     26 C13         -1.1930    -6.7320     1.5470 c5         1 EX4       0.156800
     27 C12         -0.8990    -8.1460     0.9840 c5         1 EX4      -0.078900
     28 C11         -1.6530    -8.1650    -0.3840 c5         1 EX4      -0.078900
     29 C10         -2.2490    -6.7370    -0.5050 c5         1 EX4       0.156800
     30 C14         -3.8870     0.7780    -0.2830 ca         1 EX4      -0.117500
     31 C19         -5.2530     0.5140    -0.5160 ca         1 EX4      -0.057000
     32 C18         -6.1960     1.5520    -0.4560 ca         1 EX4      -0.161000
     33 C17         -5.7890     2.8610    -0.1640 ca         1 EX4       0.218000
     34 F           -6.7240     3.8370    -0.1150 f          1 EX4      -0.161000
     35 C16         -4.4320     3.1550     0.0720 ca         1 EX4      -0.248300
     36 C15         -3.4870     2.1020     0.0100 ca         1 EX4      -0.014000
     37 C20         -4.0020     4.5910     0.3900 c3         1 EX4       0.369300
     38 F1          -4.6050     5.0560     1.5070 f          1 EX4      -0.109667
     39 F2          -2.6700     4.7140     0.5920 f          1 EX4      -0.109667
     40 F3          -4.3180     5.4390    -0.6150 f          1 EX4      -0.109667
     41 H1          -4.0480    -2.1610    -0.8380 h4         1 EX4       0.158000
     42 H2           3.2690    -1.2200    -2.2800 h1         1 EX4       0.052200
     43 H3           2.9950    -2.5550    -1.1430 h1         1 EX4       0.052200
     44 H4           0.6980    -2.6020     0.1490 hc         1 EX4       0.051700
     45 H5           0.9970     0.3770     0.8310 hc         1 EX4       0.062700
     46 H6           0.7140    -0.9280     1.9810 hc         1 EX4       0.062700
     47 H7           3.1290    -0.2820     1.8740 h1         1 EX4       0.052200
     48 H8           2.8940    -1.9730     1.4000 h1         1 EX4       0.052200
     49 H9           7.8870     2.8140    -0.0720 hn         1 EX4       0.174000
     50 H10          7.6190    -1.5820    -0.8580 h5         1 EX4       0.049100
     51 H11          4.8870     2.9470     2.1490 hc         1 EX4       0.081200
     52 H12          4.1620     4.2620     1.2180 hc         1 EX4       0.081200
     53 H13          3.2320     1.8440     0.8980 hc         1 EX4       0.068700
     54 H14          4.2920     3.1530    -1.6630 hc         1 EX4       0.040367
     55 H15          2.9860     1.9620    -1.5650 hc         1 EX4       0.040367
     56 H16          2.7800     3.5570    -0.8320 hc         1 EX4       0.040367
     57 H17          1.0740    -0.2370    -1.7770 hc         1 EX4       0.062700
     58 H18          0.8660    -1.9210    -2.2470 hc         1 EX4       0.062700
     59 H19         -2.4370    -4.0640    -1.4720 h1         1 EX4       0.069700
     60 H20         -0.6930    -3.8060    -1.3180 h1         1 EX4       0.069700
     61 H21         -0.9200    -4.0600     1.1860 h1         1 EX4       0.044200
     62 H22         -2.6330    -4.4280     0.9730 h1         1 EX4       0.044200
     63 H24         -0.3910    -6.3760     2.2070 h1         1 EX4       0.037200
     64 H25         -2.1360    -6.7180     2.1140 h1         1 EX4       0.037200
     65 H26          0.1770    -8.2910     0.8370 hc         1 EX4       0.050450
     66 H27         -1.2410    -8.9340     1.6640 hc         1 EX4       0.050450
     67 H28         -0.9590    -8.3720    -1.2070 hc         1 EX4       0.050450
     68 H29         -2.4350    -8.9320    -0.4210 hc         1 EX4       0.050450
     69 H30         -3.2640    -6.6960    -0.0830 h1         1 EX4       0.037200
     70 H31         -2.3010    -6.4040    -1.5510 h1         1 EX4       0.037200
     71 H32         -5.5950    -0.4930    -0.7440 ha         1 EX4       0.116000
     72 H33         -7.2470     1.3430    -0.6360 ha         1 EX4       0.137000
     73 H34         -2.4340     2.3080     0.1900 ha         1 EX4       0.156000
     74 O            6.6480     4.8210     0.7220 o          1 EX4      -0.524000
@<TRIPOS>BOND
     1     1     2 2   
     2     1    22 1   
     3     1    41 1   
     4     2     4 1   
     5     2    30 1   
     6     3    20 1   
     7     3    21 1   
     8     3    42 1   
     9     3    43 1   
    10     4     5 2   
    11     5     6 1   
    12     5    22 1   
    13     6     7 1   
    14     6    21 1   
    15     6    44 1   
    16     7     8 1   
    17     7    45 1   
    18     7    46 1   
    19     8    20 1   
    20     8    47 1   
    21     8    48 1   
    22     9    10 1   
    23     9    15 1   
    24     9    74 2   
    25    10    11 1   
    26    10    49 1   
    27    11    12 ar  
    28    11    18 ar  
    29    12    13 ar  
    30    13    14 ar  
    31    13    50 1   
    32    14    19 ar  
    33    15    16 1   
    34    15    51 1   
    35    15    52 1   
    36    16    17 1   
    37    16    18 1   
    38    16    53 1   
    39    17    54 1   
    40    17    55 1   
    41    17    56 1   
    42    18    19 ar  
    43    19    20 1   
    44    21    57 1   
    45    21    58 1   
    46    22    23 1   
    47    23    24 1   
    48    23    59 1   
    49    23    60 1   
    50    24    25 1   
    51    24    61 1   
    52    24    62 1   
    53    25    26 1   
    54    25    29 1   
    55    26    27 1   
    56    26    63 1   
    57    26    64 1   
    58    27    28 1   
    59    27    65 1   
    60    27    66 1   
    61    28    29 1   
    62    28    67 1   
    63    28    68 1   
    64    29    69 1   
    65    29    70 1   
    66    30    31 ar  
    67    30    36 ar  
    68    31    32 ar  
    69    31    71 1   
    70    32    33 ar  
    71    32    72 1   
    72    33    34 1   
    73    33    35 ar  
    74    35    36 ar  
    75    35    37 1   
    76    36    73 1   
    77    37    38 1   
    78    37    39 1   
    79    37    40 1   
@<TRIPOS>SUBSTRUCTURE
     1 EX4         1 TEMP              0 ****  ****    0 ROOT
