@<TRIPOS>MOLECULE
EX4
   74    79     1     0     0
SMALL
bcc


@<TRIPOS>ATOM
      1 C7          -3.1420    -1.6560    -0.6030 cc         1 EX4      -0.238600
      2 C6          -2.9050    -0.3580    -0.2350 cd         1 EX4       0.355800
      3 C1           2.7380    -0.7750    -1.1170 c6         1 EX4       0.217300
      4 N1          -1.5600    -0.1610    -0.1090 nd         1 EX4      -0.671000
      5 C5          -0.9880    -1.3040    -0.3900 cc         1 EX4       0.413800
      6 C4           0.4850    -1.5410    -0.3480 c6         1 EX4      -0.084000
      7 C3           1.0200    -1.4240     1.0820 c6         1 EX4      -0.082900
      8 C2           2.5320    -1.5920     1.1390 c6         1 EX4       0.217300
      9 C28          5.8480     3.8290    -0.2910 c          1 EX4       0.718500
     10 N6           6.5700     2.8170     0.2770 ns         1 EX4      -0.557400
     11 C23          6.0450     1.5940     0.6530 ca         1 EX4       0.595200
     12 N5           6.7330     0.9450     1.5890 nb         1 EX4      -0.778000
     13 C22          6.1670    -0.1680     2.0150 ca         1 EX4       0.710900
     14 N4           5.0290    -0.6850     1.6070 nb         1 EX4      -0.805000
     15 C27          4.4090     3.4790    -0.5590 c6         1 EX4      -0.165400
     16 C25          4.2380     2.0190    -0.9740 c6         1 EX4       0.012600
     17 C26          4.8590     1.7930    -2.3580 c3         1 EX4      -0.093100
     18 C24          4.8650     1.1390     0.0790 ca         1 EX4      -0.399900
     19 C21          4.3590    -0.0610     0.6240 ca         1 EX4       0.740200
     20 N            3.1670    -0.6200     0.2630 nh         1 EX4      -0.781300
     21 C            1.2390    -0.5640    -1.2520 c6         1 EX4      -0.082900
     22 N2          -1.9140    -2.2450    -0.7050 na         1 EX4      -0.178900
     23 C8          -1.6900    -3.6430    -1.0190 c3         1 EX4       0.038300
     24 C9          -1.4330    -4.4700     0.2370 c3         1 EX4       0.148800
     25 N3          -1.2560    -5.8640    -0.0810 n3         1 EX4      -0.722600
     26 C13         -0.7030    -6.6360     1.0210 c5         1 EX4       0.156800
     27 C12         -0.9160    -8.0950     0.6040 c5         1 EX4      -0.078900
     28 C11         -2.0470    -8.0340    -0.4440 c5         1 EX4      -0.078900
     29 C10         -2.4730    -6.5680    -0.4500 c5         1 EX4       0.156800
     30 C14         -3.8660     0.7140     0.0050 ca         1 EX4      -0.117500
     31 C19         -5.2400     0.5090    -0.1300 ca         1 EX4      -0.075000
     32 C18         -6.1430     1.5310     0.1050 ca         1 EX4      -0.179000
     33 C17         -5.6690     2.7710     0.4770 ca         1 EX4       0.182900
     34 F           -6.5440     3.7580     0.7050 f          1 EX4      -0.125900
     35 C16         -4.3110     3.0170     0.6200 ca         1 EX4      -0.248300
     36 C15         -3.4190     1.9800     0.3810 ca         1 EX4      -0.032000
     37 C20         -3.8350     4.3780     1.0220 c3         1 EX4       0.733200
     38 F1          -4.3180     4.7430     2.2170 f          1 EX4      -0.230967
     39 F2          -2.5050     4.4430     1.1060 f          1 EX4      -0.230967
     40 F3          -4.2160     5.3180     0.1470 f          1 EX4      -0.230967
     41 H1          -4.0480    -2.2020    -0.8070 h4         1 EX4       0.176000
     42 H2           3.2720    -0.1000    -1.7740 h1         1 EX4       0.052200
     43 H3           2.9950    -1.7890    -1.4540 h1         1 EX4       0.052200
     44 H4           0.6950    -2.5550    -0.7070 hc         1 EX4       0.051700
     45 H5           0.7510    -0.4450     1.4870 hc         1 EX4       0.062700
     46 H6           0.5570    -2.1760     1.7260 hc         1 EX4       0.062700
     47 H7           2.8760    -1.4460     2.1590 h1         1 EX4       0.052200
     48 H8           2.8110    -2.6140     0.8480 h1         1 EX4       0.052200
     49 H9           7.4970     3.0340     0.6210 hn         1 EX4       0.340500
     50 H10          6.6960    -0.7150     2.7890 h5         1 EX4       0.049100
     51 H11          3.8490     3.6780     0.3610 hc         1 EX4       0.081200
     52 H12          4.0190     4.1510    -1.3230 hc         1 EX4       0.081200
     53 H13          3.1640     1.8310    -1.0240 hc         1 EX4       0.068700
     54 H14          5.9190     2.0530    -2.3710 hc         1 EX4       0.040367
     55 H15          4.7890     0.7540    -2.6780 hc         1 EX4       0.040367
     56 H16          4.3560     2.4060    -3.1060 hc         1 EX4       0.040367
     57 H17          0.9840     0.4630    -0.9770 hc         1 EX4       0.062700
     58 H18          0.9480    -0.7090    -2.2950 hc         1 EX4       0.062700
     59 H19         -2.5740    -3.9990    -1.5470 h1         1 EX4       0.069700
     60 H20         -0.8500    -3.7360    -1.7060 h1         1 EX4       0.069700
     61 H21         -0.5170    -4.1090     0.7150 h1         1 EX4       0.044200
     62 H22         -2.2520    -4.3090     0.9600 h1         1 EX4       0.044200
     63 H24          0.3470    -6.3830     1.1820 h1         1 EX4       0.037200
     64 H25         -1.2360    -6.4260     1.9630 h1         1 EX4       0.037200
     65 H26         -0.0090    -8.5160     0.1720 hc         1 EX4       0.050450
     66 H27         -1.1790    -8.7120     1.4620 hc         1 EX4       0.050450
     67 H28         -1.6770    -8.3250    -1.4270 hc         1 EX4       0.050450
     68 H29         -2.8820    -8.6930    -0.2040 hc         1 EX4       0.050450
     69 H30         -3.2740    -6.3970     0.2900 h1         1 EX4       0.037200
     70 H31         -2.8510    -6.2450    -1.4210 h1         1 EX4       0.037200
     71 H32         -5.6220    -0.4590    -0.4250 ha         1 EX4       0.134000
     72 H33         -7.2070     1.3670     0.0000 ha         1 EX4       0.155000
     73 H34         -2.3550     2.1420     0.4860 ha         1 EX4       0.174000
     74 O            6.3430     4.9150    -0.5110 o          1 EX4      -0.599500
@<TRIPOS>BOND
     1     1     2 2   
     2     1    22 1   
     3     1    41 1   
     4     2     4 1   
     5     2    30 1   
     6     3    20 1   
     7     3    21 1   
     8     3    42 1   
     9     3    43 1   
    10     4     5 2   
    11     5     6 1   
    12     5    22 1   
    13     6     7 1   
    14     6    21 1   
    15     6    44 1   
    16     7     8 1   
    17     7    45 1   
    18     7    46 1   
    19     8    20 1   
    20     8    47 1   
    21     8    48 1   
    22     9    10 1   
    23     9    15 1   
    24     9    74 2   
    25    10    11 1   
    26    10    49 1   
    27    11    12 ar  
    28    11    18 ar  
    29    12    13 ar  
    30    13    14 ar  
    31    13    50 1   
    32    14    19 ar  
    33    15    16 1   
    34    15    51 1   
    35    15    52 1   
    36    16    17 1   
    37    16    18 1   
    38    16    53 1   
    39    17    54 1   
    40    17    55 1   
    41    17    56 1   
    42    18    19 ar  
    43    19    20 1   
    44    21    57 1   
    45    21    58 1   
    46    22    23 1   
    47    23    24 1   
    48    23    59 1   
    49    23    60 1   
    50    24    25 1   
    51    24    61 1   
    52    24    62 1   
    53    25    26 1   
    54    25    29 1   
    55    26    27 1   
    56    26    63 1   
    57    26    64 1   
    58    27    28 1   
    59    27    65 1   
    60    27    66 1   
    61    28    29 1   
    62    28    67 1   
    63    28    68 1   
    64    29    69 1   
    65    29    70 1   
    66    30    31 ar  
    67    30    36 ar  
    68    31    32 ar  
    69    31    71 1   
    70    32    33 ar  
    71    32    72 1   
    72    33    34 1   
    73    33    35 ar  
    74    35    36 ar  
    75    35    37 1   
    76    36    73 1   
    77    37    38 1   
    78    37    39 1   
    79    37    40 1   
@<TRIPOS>SUBSTRUCTURE
     1 EX4         1 TEMP              0 ****  ****    0 ROOT
