@<TRIPOS>MOLECULE
EX5
   60    65     1     0     0
SMALL
abcg2


@<TRIPOS>ATOM
      1 CAA         -2.1110     0.6520    -0.0180 ca         1 EX5      -0.017000
      2 CAB         -3.2770    -0.0210    -0.3430 ca         1 EX5       0.029100
      3 CAC         -3.3430    -1.4190    -0.3390 ca         1 EX5       0.177100
      4 CAD         -2.2090    -2.1650    -0.0150 ca         1 EX5      -0.225000
      5 CAE         -1.0510    -1.4700     0.2870 ca         1 EX5       0.324000
      6 CAF         -0.9850    -0.0820     0.2900 ca         1 EX5      -0.173300
      7 CAH          1.1260    -1.0000     0.6470 c2         1 EX5       0.207800
      8 CAI          0.3850     0.3100     0.7740 c5         1 EX5       0.017500
      9 CAJ          2.4770    -1.0670     0.5370 ce         1 EX5      -0.275400
     10 CAK          3.2040     0.2330     0.2970 c6         1 EX5       0.011800
     11 CAL          2.3780     1.1540    -0.6220 c6         1 EX5      -0.030000
     12 CAM          1.0830     1.5220     0.1090 c5         1 EX5       0.212500
     13 CAN          3.1780     2.4170    -0.8740 cx         1 EX5       0.110300
     14 CAO          2.8720     3.6780    -0.1960 cx         1 EX5       0.082300
     15 CAP          1.7560     3.7400     0.8200 c6         1 EX5       0.199800
     16 CAT         -4.6640    -3.3590    -0.6640 c3         1 EX5       0.146900
     17 CAU         -5.3980     0.8330     0.1510 c          1 EX5       0.597100
     18 CAV         -6.5580     1.5410    -0.4740 c3         1 EX5      -0.155100
     19 CAY          0.3670     2.2380     2.2120 c5         1 EX5       0.182800
     20 CAZ          0.2970     0.7240     2.2810 c5         1 EX5      -0.062400
     21 CBA          2.0350     0.4980    -1.9720 c3         1 EX5      -0.067400
     22 CBB          3.2150    -0.1200    -2.7110 c3         1 EX5      -0.086100
     23 CBC          3.1260    -2.3630     0.4880 c          1 EX5       0.621300
     24 CBF          5.1750    -3.5050     0.2440 c3         1 EX5       0.153900
     25 NAG          0.1960    -1.9930     0.6050 nu         1 EX5      -0.806000
     26 NAQ          1.3870     2.4090     1.2110 n3         1 EX5      -0.760600
     27 OAR         -4.5300    -1.9510    -0.6690 os         1 EX5      -0.329100
     28 OAS         -4.3910     0.6940    -0.7360 os         1 EX5      -0.343200
     29 OAW         -5.3300     0.4370     1.2810 o          1 EX5      -0.463000
     30 OAX          2.5020     3.4640    -1.5510 op         1 EX5      -0.444000
     31 OBD          2.5510    -3.4370     0.5780 o          1 EX5      -0.546000
     32 OBE          4.4480    -2.2850     0.3400 os         1 EX5      -0.435100
     33 H1          -2.1010     1.7350    -0.0270 ha         1 EX5       0.132000
     34 H2          -2.2180    -3.2460    -0.0120 ha         1 EX5       0.132000
     35 H4           3.4100     0.7670     1.2300 hc         1 EX5       0.063200
     36 H5           4.1760     0.0400    -0.1570 hc         1 EX5       0.063200
     37 H6           0.3780     1.9870    -0.6030 h1         1 EX5       0.053700
     38 H7           4.2040     2.2560    -1.2070 h1         1 EX5       0.088700
     39 H8           3.6700     4.4060    -0.0650 h1         1 EX5       0.090700
     40 H9           2.1110     4.2810     1.7000 h1         1 EX5       0.045200
     41 H10          0.9140     4.3230     0.4070 h1         1 EX5       0.045200
     42 H11         -4.4710    -3.7810     0.3250 h1         1 EX5       0.045033
     43 H12         -5.6930    -3.5710    -0.9420 h1         1 EX5       0.045033
     44 H13         -3.9980    -3.8340    -1.3880 h1         1 EX5       0.045033
     45 H14         -6.2560     2.5280    -0.8250 hc         1 EX5       0.070700
     46 H15         -6.9170     0.9850    -1.3400 hc         1 EX5       0.070700
     47 H16         -7.3670     1.6500     0.2420 hc         1 EX5       0.070700
     48 H17         -0.6060     2.6720     1.9250 h1         1 EX5       0.039700
     49 H18          0.6640     2.6920     3.1600 h1         1 EX5       0.039700
     50 H19         -0.6040     0.3410     2.7570 hc         1 EX5       0.067200
     51 H20          1.1620     0.3440     2.8270 hc         1 EX5       0.067200
     52 H21          1.2720    -0.2700    -1.8250 hc         1 EX5       0.047200
     53 H22          1.5610     1.2560    -2.6010 hc         1 EX5       0.047200
     54 H23          2.9120    -0.4480    -3.7050 hc         1 EX5       0.033033
     55 H24          4.0390     0.5850    -2.8370 hc         1 EX5       0.033033
     56 H25          3.6060    -0.9920    -2.1870 hc         1 EX5       0.033033
     57 H26          5.0660    -4.1140     1.1420 h1         1 EX5       0.045700
     58 H27          4.8660    -4.0900    -0.6230 h1         1 EX5       0.045700
     59 H28          6.2180    -3.2220     0.1290 h1         1 EX5       0.045700
     60 H3           0.4570    -2.9560     0.4570 hn         1 EX5       0.537000
@<TRIPOS>BOND
     1     1     2 ar  
     2     1     6 ar  
     3     1    33 1   
     4     2     3 ar  
     5     2    28 1   
     6     3     4 ar  
     7     3    27 1   
     8     4     5 ar  
     9     4    34 1   
    10     5     6 ar  
    11     5    25 1   
    12     6     8 1   
    13     7     8 1   
    14     7     9 2   
    15     7    25 1   
    16     8    12 1   
    17     8    20 1   
    18     9    10 1   
    19     9    23 1   
    20    10    11 1   
    21    10    35 1   
    22    10    36 1   
    23    11    12 1   
    24    11    13 1   
    25    11    21 1   
    26    12    26 1   
    27    12    37 1   
    28    13    14 1   
    29    13    30 1   
    30    13    38 1   
    31    14    15 1   
    32    14    30 1   
    33    14    39 1   
    34    15    26 1   
    35    15    40 1   
    36    15    41 1   
    37    16    27 1   
    38    16    42 1   
    39    16    43 1   
    40    16    44 1   
    41    17    18 1   
    42    17    28 1   
    43    17    29 2   
    44    18    45 1   
    45    18    46 1   
    46    18    47 1   
    47    19    20 1   
    48    19    26 1   
    49    19    48 1   
    50    19    49 1   
    51    20    50 1   
    52    20    51 1   
    53    21    22 1   
    54    21    52 1   
    55    21    53 1   
    56    22    54 1   
    57    22    55 1   
    58    22    56 1   
    59    23    31 2   
    60    23    32 1   
    61    24    32 1   
    62    24    57 1   
    63    24    58 1   
    64    24    59 1   
    65    25    60 1   
@<TRIPOS>SUBSTRUCTURE
     1 EX5         1 TEMP              0 ****  ****    0 ROOT
