@<TRIPOS>MOLECULE
EX5
   60    65     1     0     0
SMALL
No Charge or Current Charge


@<TRIPOS>ATOM
      1 CAA         -2.0320     0.6790     0.1650 ca         1 EX5      -0.017000
      2 CAB         -3.2200     0.0300    -0.2290 ca         1 EX5       0.029100
      3 CAC         -3.2990    -1.3920    -0.2710 ca         1 EX5       0.177100
      4 CAD         -2.1770    -2.1690     0.1060 ca         1 EX5      -0.225000
      5 CAE         -1.0310    -1.4970     0.5220 ca         1 EX5       0.324000
      6 CAF         -0.9340    -0.1080     0.5470 ca         1 EX5      -0.173300
      7 CAH          1.1660    -1.0490     0.9280 c2         1 EX5       0.207800
      8 CAI          0.4730     0.3180     1.0110 c5         1 EX5       0.017500
      9 CAJ          2.4790    -1.1750     0.6380 ce         1 EX5      -0.275400
     10 CAK          3.2690     0.1250     0.3700 c6         1 EX5       0.011800
     11 CAL          2.4500     1.0570    -0.5810 c6         1 EX5      -0.030000
     12 CAM          1.1270     1.4870     0.1790 c5         1 EX5       0.212500
     13 CAN          3.3190     2.2690    -0.9400 cx         1 EX5       0.110300
     14 CAO          2.6750     4.1370    -0.1780 cx         1 EX5       0.082300
     15 CAP          1.5230     3.9540     0.8010 c6         1 EX5       0.199800
     16 CAT         -4.6440    -3.4050    -0.7760 c3         1 EX5       0.146900
     17 CAU         -5.4740     0.8410     0.0990 c          1 EX5       0.597100
     18 CAV         -6.5300     1.6730    -0.6150 c3         1 EX5      -0.155100
     19 CAY          0.2950     2.3430     2.2450 c5         1 EX5       0.182800
     20 CAZ          0.3890     0.8260     2.4770 c5         1 EX5      -0.062400
     21 CBA          2.0610     0.3280    -1.9250 c3         1 EX5      -0.067400
     22 CBB          3.2150    -0.2710    -2.7660 c3         1 EX5      -0.086100
     23 CBC          3.1330    -2.5140     0.4160 c          1 EX5       0.621300
     24 CBF          5.2170    -3.6280    -0.0610 c3         1 EX5       0.153900
     25 NAG          0.1920    -2.0160     0.8670 nu         1 EX5      -0.806000
     26 NAQ          1.3710     2.5360     1.2470 n3         1 EX5      -0.760600
     27 OAR         -4.4730    -1.9790    -0.7090 os         1 EX5      -0.329100
     28 OAS         -4.2960     0.8060    -0.6020 os         1 EX5      -0.343200
     29 OAW         -5.6560     0.2910     1.1770 o          1 EX5      -0.463000
     30 OAX          2.3840     3.9110    -1.6700 op         1 EX5      -0.444000
     31 OBD          2.5380    -3.5840     0.4730 o          1 EX5      -0.546000
     32 OBE          4.4770    -2.4150     0.1670 os         1 EX5      -0.435100
     33 H1          -1.9760     1.7640     0.1710 ha         1 EX5       0.132000
     34 H2          -2.1810    -3.2530     0.0770 ha         1 EX5       0.132000
     35 H4           3.4750     0.6410     1.3180 hc         1 EX5       0.063200
     36 H5           4.2520    -0.0550    -0.0820 hc         1 EX5       0.063200
     37 H6           0.4130     1.8720    -0.5630 h1         1 EX5       0.053700
     38 H7           4.3410     2.1140    -1.2860 h1         1 EX5       0.088700
     39 H8           3.4090     4.9060     0.0590 h1         1 EX5       0.090700
     40 H9           1.7080     4.6080     1.6660 h1         1 EX5       0.045200
     41 H10          0.6010     4.3070     0.3170 h1         1 EX5       0.045200
     42 H11         -4.5230    -3.8590     0.2150 h1         1 EX5       0.045033
     43 H12         -5.6490    -3.6500    -1.1410 h1         1 EX5       0.045033
     44 H13         -3.9150    -3.8540    -1.4620 h1         1 EX5       0.045033
     45 H14         -6.1180     2.6680    -0.8180 hc         1 EX5       0.070700
     46 H15         -6.6720     1.2710    -1.6240 hc         1 EX5       0.070700
     47 H16         -7.4720     1.7260    -0.0590 hc         1 EX5       0.070700
     48 H17         -0.6870     2.6400     1.8530 h1         1 EX5       0.039700
     49 H18          0.4780     2.9080     3.1690 h1         1 EX5       0.039700
     50 H19         -0.4660     0.4240     3.0320 hc         1 EX5       0.067200
     51 H20          1.2950     0.5770     3.0400 hc         1 EX5       0.067200
     52 H21          1.3420    -0.4770    -1.7320 hc         1 EX5       0.047200
     53 H22          1.5220     1.0370    -2.5670 hc         1 EX5       0.047200
     54 H23          2.8180    -0.7130    -3.6880 hc         1 EX5       0.033033
     55 H24          3.9430     0.4980    -3.0490 hc         1 EX5       0.033033
     56 H25          3.7380    -1.0620    -2.2170 hc         1 EX5       0.033033
     57 H26          5.1610    -4.2910     0.8110 h1         1 EX5       0.045700
     58 H27          4.8250    -4.1660    -0.9350 h1         1 EX5       0.045700
     59 H28          6.2740    -3.4000    -0.2480 h1         1 EX5       0.045700
     60 H3           0.4440    -2.9560     0.5520 hn         1 EX5       0.537000
@<TRIPOS>BOND
     1     1     2 ar  
     2     1     6 ar  
     3     1    33 1   
     4     2     3 ar  
     5     2    28 1   
     6     3     4 ar  
     7     3    27 1   
     8     4     5 ar  
     9     4    34 1   
    10     5     6 ar  
    11     5    25 1   
    12     6     8 1   
    13     7     8 1   
    14     7     9 2   
    15     7    25 1   
    16     8    12 1   
    17     8    20 1   
    18     9    10 1   
    19     9    23 1   
    20    10    11 1   
    21    10    35 1   
    22    10    36 1   
    23    11    12 1   
    24    11    13 1   
    25    11    21 1   
    26    12    26 1   
    27    12    37 1   
    28    13    14 1   
    29    13    30 1   
    30    13    38 1   
    31    14    15 1   
    32    14    30 1   
    33    14    39 1   
    34    15    26 1   
    35    15    40 1   
    36    15    41 1   
    37    16    27 1   
    38    16    42 1   
    39    16    43 1   
    40    16    44 1   
    41    17    18 1   
    42    17    28 1   
    43    17    29 2   
    44    18    45 1   
    45    18    46 1   
    46    18    47 1   
    47    19    20 1   
    48    19    26 1   
    49    19    48 1   
    50    19    49 1   
    51    20    50 1   
    52    20    51 1   
    53    21    22 1   
    54    21    52 1   
    55    21    53 1   
    56    22    54 1   
    57    22    55 1   
    58    22    56 1   
    59    23    31 2   
    60    23    32 1   
    61    24    32 1   
    62    24    57 1   
    63    24    58 1   
    64    24    59 1   
    65    25    60 1   
@<TRIPOS>SUBSTRUCTURE
     1 EX5         1 TEMP              0 ****  ****    0 ROOT
