@<TRIPOS>MOLECULE
EX6
   62    65     1     0     0
SMALL
abcg2


@<TRIPOS>ATOM
      1 C47         11.4300    10.0170   -22.8520 ca         1 EX6      -0.116000
      2 C45         10.6410    11.0430   -22.3480 ca         1 EX6      -0.124000
      3 C49         12.7550     9.9170   -22.4550 ca         1 EX6      -0.124000
      4 C28          8.3620    13.4440   -17.1760 ca         1 EX6      -0.122000
      5 C43         11.1750    11.9680   -21.4620 ca         1 EX6      -0.092500
      6 C51         13.2830    10.8380   -21.5590 ca         1 EX6      -0.092500
      7 C26          9.4500    13.0210   -17.9190 ca         1 EX6      -0.090000
      8 C31          9.7090    13.3090   -15.2080 ca         1 EX6      -0.149000
      9 C54         14.7250    15.2160   -24.6000 ca         1 EX6      -0.086000
     10 C62         13.2410    13.3330   -24.3750 ca         1 EX6      -0.086000
     11 C58         15.0180    13.2820   -26.0220 ca         1 EX6      -0.102000
     12 C30          8.4870    13.5970   -15.7960 ca         1 EX6      -0.097600
     13 C42         12.5050    11.8750   -21.0550 ca         1 EX6      -0.074300
     14 C25         10.6860    12.7400   -17.3410 ca         1 EX6      -0.174300
     15 C53         13.6390    14.6090   -23.9840 ca         1 EX6      -0.108300
     16 C33         10.8190    12.8870   -15.9520 ca         1 EX6       0.245000
     17 C56         15.4000    14.5460   -25.6080 ca         1 EX6       0.120000
     18 C60         13.9340    12.6930   -25.3880 ca         1 EX6       0.120000
     19 C14         13.3130    15.6370   -19.1660 c6         1 EX6      -0.075400
     20 C11         14.3030    15.1550   -20.2100 c6         1 EX6      -0.104400
     21 C17         12.8470    14.4610   -18.3290 c6         1 EX6       0.164800
     22 C40         13.1440    12.9150   -20.1640 c6         1 EX6       0.235800
     23 C9          13.6660    14.0600   -21.0530 c6         1 EX6       0.175300
     24 C3          11.5660    15.8710   -23.4710 c3         1 EX6       0.172600
     25 C6          12.8780    15.3520   -22.9050 c3         1 EX6       0.216600
     26 N34         12.0300    12.6920   -15.3030 nv         1 EX6      -1.077000
     27 N20         12.2430    13.4010   -19.1270 n3         1 EX6      -0.691600
     28 O38          7.4870    14.1330   -13.7160 o          1 EX6      -0.720500
     29 O39          6.2560    14.3350   -15.5640 o          1 EX6      -0.720500
     30 O8          12.5720    14.5390   -21.8060 os         1 EX6      -0.414000
     31 CL57        16.7600    15.3010   -26.3650 cl         1 EX6      -0.201000
     32 CL61        13.4430    11.1120   -25.8920 cl         1 EX6      -0.201000
     33 H1          11.0140     9.3010   -23.5500 ha         1 EX6       0.104000
     34 H2           9.6050    11.1280   -22.6510 ha         1 EX6       0.107000
     35 H3          13.3810     9.1220   -22.8400 ha         1 EX6       0.107000
     36 H4           7.4200    13.6530   -17.6630 ha         1 EX6       0.128000
     37 H5          10.5520    12.7650   -21.0790 ha         1 EX6       0.125500
     38 H6          14.3190    10.7500   -21.2510 ha         1 EX6       0.125500
     39 H7           9.3460    12.9000   -18.9920 ha         1 EX6       0.090000
     40 H8           9.8150    13.4190   -14.1340 ha         1 EX6       0.125000
     41 H9          15.0440    16.2030   -24.2910 ha         1 EX6       0.145500
     42 H10         12.4080    12.8410   -23.8890 ha         1 EX6       0.145500
     43 H11         15.5520    12.7670   -26.8080 ha         1 EX6       0.139000
     44 H12         13.7760    16.3770   -18.5090 hc         1 EX6       0.055200
     45 H13         12.4590    16.1250   -19.6410 hc         1 EX6       0.055200
     46 H14         15.1850    14.7350   -19.7160 hc         1 EX6       0.035700
     47 H15         14.6670    15.9730   -20.8350 hc         1 EX6       0.035700
     48 H16         13.7090    14.0720   -17.7580 h1         1 EX6       0.046700
     49 H17         12.1130    14.7970   -17.5960 h1         1 EX6       0.046700
     50 H18         14.0460    12.4620   -19.7090 h1         1 EX6       0.020700
     51 H19         14.4240    13.6180   -21.7150 h1         1 EX6       0.028700
     52 H22         11.7940    16.4430   -24.3790 h1         1 EX6       0.023700
     53 H23         10.9460    15.0160   -23.7770 h1         1 EX6       0.023700
     54 H24         13.4810    16.2220   -22.6040 h1         1 EX6       0.048700
     55 H25         11.9460    12.5540   -14.3070 hn         1 EX6       0.422500
     56 H26         12.6380    11.9950   -15.7010 hn         1 EX6       0.422500
     57 C22         11.8130    12.3170   -18.2490 c3         1 EX6       0.226100
     58 H20         11.4590    11.4880   -18.8640 h1         1 EX6       0.021700
     59 H21         12.6700    11.9180   -17.6840 h1         1 EX6       0.021700
     60 H29         10.1120    16.9970   -22.8680 ho         1 EX6       0.503000
     61 O2          10.9320    16.6590   -22.4960 oh         1 EX6      -0.698000
     62 C37          7.3040    14.0640   -14.9480 c          1 EX6       0.712600
@<TRIPOS>BOND
     1     1     2 ar  
     2     1     3 ar  
     3     1    33 1   
     4     2     5 ar  
     5     2    34 1   
     6     3     6 ar  
     7     3    35 1   
     8     4     7 ar  
     9     4    12 ar  
    10     4    36 1   
    11     5    13 ar  
    12     5    37 1   
    13     6    13 ar  
    14     6    38 1   
    15     7    14 ar  
    16     7    39 1   
    17     8    12 ar  
    18     8    16 ar  
    19     8    40 1   
    20     9    15 ar  
    21     9    17 ar  
    22     9    41 1   
    23    10    15 ar  
    24    10    18 ar  
    25    10    42 1   
    26    11    17 ar  
    27    11    18 ar  
    28    11    43 1   
    29    12    62 1   
    30    13    22 1   
    31    14    16 ar  
    32    14    57 1   
    33    15    25 1   
    34    16    26 1   
    35    17    31 1   
    36    18    32 1   
    37    19    20 1   
    38    19    21 1   
    39    19    44 1   
    40    19    45 1   
    41    20    23 1   
    42    20    46 1   
    43    20    47 1   
    44    21    27 1   
    45    21    48 1   
    46    21    49 1   
    47    22    23 1   
    48    22    27 1   
    49    22    50 1   
    50    23    30 1   
    51    23    51 1   
    52    24    25 1   
    53    24    52 1   
    54    24    53 1   
    55    24    61 1   
    56    25    30 1   
    57    25    54 1   
    58    26    55 1   
    59    26    56 1   
    60    27    57 1   
    61    28    62 1   
    62    29    62 1   
    63    57    58 1   
    64    57    59 1   
    65    60    61 1   
@<TRIPOS>SUBSTRUCTURE
     1 EX6         1 TEMP              0 ****  ****    0 ROOT
