@<TRIPOS>MOLECULE
EX6
   62    65     1     0     0
SMALL
No Charge or Current Charge


@<TRIPOS>ATOM
      1 C47         11.5880     9.9030   -22.8470 ca         1 EX6      -0.116000
      2 C45         10.7530    10.9710   -22.4810 ca         1 EX6      -0.124000
      3 C49         12.9060     9.8460   -22.3640 ca         1 EX6      -0.124000
      4 C28          8.2970    13.4450   -16.9390 ca         1 EX6      -0.122000
      5 C43         11.2360    11.9810   -21.6320 ca         1 EX6      -0.092500
      6 C51         13.3890    10.8560   -21.5130 ca         1 EX6      -0.092500
      7 C26          9.3440    13.0900   -17.8040 ca         1 EX6      -0.090000
      8 C31          9.7430    13.0310   -15.0360 ca         1 EX6      -0.149000
      9 C54         14.9330    14.9830   -24.5430 ca         1 EX6      -0.086000
     10 C62         13.0530    13.4390   -24.5450 ca         1 EX6      -0.086000
     11 C58         15.0300    12.9470   -25.8760 ca         1 EX6      -0.102000
     12 C30          8.4780    13.4210   -15.5370 ca         1 EX6      -0.097600
     13 C42         12.5570    11.9300   -21.1370 ca         1 EX6      -0.074300
     14 C25         10.6010    12.7050   -17.2970 ca         1 EX6      -0.174300
     15 C53         13.6400    14.6410   -24.0950 ca         1 EX6      -0.108300
     16 C33         10.7940    12.6760   -15.8970 ca         1 EX6       0.245000
     17 C56         15.6210    14.1390   -25.4310 ca         1 EX6       0.120000
     18 C60         13.7460    12.5980   -25.4310 ca         1 EX6       0.120000
     19 C14         13.1890    15.7790   -19.1300 c6         1 EX6      -0.075400
     20 C11         14.2030    15.3620   -20.2180 c6         1 EX6      -0.104400
     21 C17         12.7490    14.5560   -18.2890 c6         1 EX6       0.164800
     22 C40         13.1060    13.0460   -20.2240 c6         1 EX6       0.235800
     23 C9          13.6000    14.2460   -21.1080 c6         1 EX6       0.175300
     24 C3          11.6040    16.1430   -23.7290 c3         1 EX6       0.172600
     25 C6          12.9010    15.5480   -23.1070 c3         1 EX6       0.216600
     26 N34         11.9940    12.3090   -15.3410 nv         1 EX6      -1.077000
     27 N20         12.1640    13.4660   -19.1260 n3         1 EX6      -0.691600
     28 O38          7.5450    13.7750   -13.3880 o          1 EX6      -0.720500
     29 O39          6.2650    14.1300   -15.0750 o          1 EX6      -0.720500
     30 O8          12.5350    14.7640   -21.9500 os         1 EX6      -0.414000
     31 Cl57        17.2330    14.5760   -25.9830 cl         1 EX6      -0.201000
     32 Cl61        13.0030    11.1040   -25.9850 cl         1 EX6      -0.201000
     33 H1          11.2170     9.1220   -23.5080 ha         1 EX6       0.104000
     34 H2           9.7340    11.0180   -22.8580 ha         1 EX6       0.107000
     35 H3          13.5550     9.0220   -22.6520 ha         1 EX6       0.107000
     36 H4           7.3400    13.7390   -17.3640 ha         1 EX6       0.128000
     37 H5          10.5870    12.8100   -21.3570 ha         1 EX6       0.125500
     38 H6          14.4130    10.8040   -21.1490 ha         1 EX6       0.125500
     39 H7           9.1810    13.1170   -18.8790 ha         1 EX6       0.090000
     40 H8           9.9090    13.0030   -13.9630 ha         1 EX6       0.125000
     41 H9          15.4080    15.9010   -24.2040 ha         1 EX6       0.145500
     42 H10         12.0630    13.1500   -24.2010 ha         1 EX6       0.145500
     43 H11         15.5650    12.2950   -26.5620 ha         1 EX6       0.139000
     44 H12         13.6340    16.5380   -18.4740 hc         1 EX6       0.055200
     45 H13         12.3080    16.2430   -19.5950 hc         1 EX6       0.055200
     46 H14         15.1200    14.9890   -19.7400 hc         1 EX6       0.035700
     47 H15         14.5020    16.2310   -20.8160 hc         1 EX6       0.035700
     48 H16         13.6210    14.1780   -17.7330 h1         1 EX6       0.046700
     49 H17         12.0210    14.9030   -17.5420 h1         1 EX6       0.046700
     50 H18         14.0040    12.6360   -19.7390 h1         1 EX6       0.020700
     51 H19         14.3970    13.8590   -21.7600 h1         1 EX6       0.028700
     52 H22         11.8510    16.5600   -24.7150 h1         1 EX6       0.023700
     53 H23         10.8780    15.3340   -23.8880 h1         1 EX6       0.023700
     54 H24         13.5540    16.3840   -22.8240 h1         1 EX6       0.048700
     55 H25         12.1440    12.4130   -14.3400 hn         1 EX6       0.422500
     56 H26         12.8090    12.1820   -15.9330 hn         1 EX6       0.422500
     57 C22         11.6970    12.3240   -18.2970 c3         1 EX6       0.226100
     58 H20         11.2780    11.5390   -18.9380 h1         1 EX6       0.021700
     59 H21         12.5540    11.8690   -17.7830 h1         1 EX6       0.021700
     60 H29         10.1790    17.4360   -23.3120 ho         1 EX6       0.503000
     61 O2          11.0330    17.1730   -22.8960 oh         1 EX6      -0.698000
     62 C37          7.3430    13.8050   -14.5940 c          1 EX6       0.712600
@<TRIPOS>BOND
     1     1     2 ar  
     2     1     3 ar  
     3     1    33 1   
     4     2     5 ar  
     5     2    34 1   
     6     3     6 ar  
     7     3    35 1   
     8     4     7 ar  
     9     4    12 ar  
    10     4    36 1   
    11     5    13 ar  
    12     5    37 1   
    13     6    13 ar  
    14     6    38 1   
    15     7    14 ar  
    16     7    39 1   
    17     8    12 ar  
    18     8    16 ar  
    19     8    40 1   
    20     9    15 ar  
    21     9    17 ar  
    22     9    41 1   
    23    10    15 ar  
    24    10    18 ar  
    25    10    42 1   
    26    11    17 ar  
    27    11    18 ar  
    28    11    43 1   
    29    12    62 1   
    30    13    22 1   
    31    14    16 ar  
    32    14    57 1   
    33    15    25 1   
    34    16    26 1   
    35    17    31 1   
    36    18    32 1   
    37    19    20 1   
    38    19    21 1   
    39    19    44 1   
    40    19    45 1   
    41    20    23 1   
    42    20    46 1   
    43    20    47 1   
    44    21    27 1   
    45    21    48 1   
    46    21    49 1   
    47    22    23 1   
    48    22    27 1   
    49    22    50 1   
    50    23    30 1   
    51    23    51 1   
    52    24    25 1   
    53    24    52 1   
    54    24    53 1   
    55    24    61 1   
    56    25    30 1   
    57    25    54 1   
    58    26    55 1   
    59    26    56 1   
    60    27    57 1   
    61    28    62 1   
    62    29    62 1   
    63    57    58 1   
    64    57    59 1   
    65    60    61 1   
@<TRIPOS>SUBSTRUCTURE
     1 EX6         1 TEMP              0 ****  ****    0 ROOT
