@<TRIPOS>MOLECULE
EX8
   17    17     1     0     0
SMALL
No Charge or Current Charge


@<TRIPOS>ATOM
      1 O           59.4800    39.3690    41.4190 o          1 EX8      -0.508100
      2 C           59.6220    40.5540    41.7150 c          1 EX8       0.559900
      3 CA          58.8320    41.7490    41.0920 c5         1 EX8       0.023500
      4 CB          57.9750    42.4050    42.2140 c5         1 EX8       0.131300
      5 FAG         58.7470    43.2450    43.0240 f          1 EX8      -0.258000
      6 N           57.8620    41.4020    39.9790 n7         1 EX8      -0.842400
      7 CD1         56.5870    42.1180    40.3050 c5         1 EX8       0.158800
      8 CG          56.9390    43.2070    41.3720 c5         1 EX8       0.135300
      9 OD2         57.4830    44.4100    40.7960 oh         1 EX8      -0.642000
     10 H1          60.3870    40.8560    42.4650 h4         1 EX8       0.005200
     11 H2          59.5790    42.4710    40.7340 h1         1 EX8       0.107700
     12 H3          57.4800    41.6580    42.8500 h1         1 EX8       0.064700
     13 H4          57.6830    40.3850    39.9630 hn         1 EX8       0.434000
     14 H6          56.1260    42.5550    39.4080 h1         1 EX8       0.060700
     15 H7          55.8580    41.4110    40.7290 h1         1 EX8       0.060700
     16 H8          56.0540    43.4530    41.9760 h1         1 EX8       0.057700
     17 H9          58.0210    44.8340    41.5010 ho         1 EX8       0.452000
@<TRIPOS>BOND
     1     1     2 2   
     2     2     3 1   
     3     2    10 1   
     4     3     4 1   
     5     3     6 1   
     6     3    11 1   
     7     4     5 1   
     8     4     8 1   
     9     4    12 1   
    10     6     7 1   
    11     6    13 1   
    12     7     8 1   
    13     7    14 1   
    14     7    15 1   
    15     8     9 1   
    16     8    16 1   
    17     9    17 1   
@<TRIPOS>SUBSTRUCTURE
     1 EX8         1 TEMP              0 ****  ****    0 ROOT
