@<TRIPOS>MOLECULE
EX8
   17    17     1     0     0
SMALL
abcg2


@<TRIPOS>ATOM
      1 O           59.3610    39.3900    41.2970 o          1 EX8      -0.508100
      2 C           59.5610    40.5240    41.6670 c          1 EX8       0.559900
      3 CA          58.8440    41.7260    41.1250 c5         1 EX8       0.023500
      4 CB          58.0140    42.4390    42.2110 c5         1 EX8       0.131300
      5 FAG         58.7890    43.3270    42.9600 f          1 EX8      -0.258000
      6 N           57.9050    41.4290    40.0520 n7         1 EX8      -0.842400
      7 CD1         56.6170    42.1110    40.3350 c5         1 EX8       0.158800
      8 CG          56.9370    43.1540    41.3950 c5         1 EX8       0.135300
      9 OD2         57.4680    44.3080    40.7540 oh         1 EX8      -0.642000
     10 H1          60.3070    40.7460    42.4520 h4         1 EX8       0.005200
     11 H2          59.6260    42.4320    40.8070 h1         1 EX8       0.107700
     12 H3          57.5610    41.7370    42.9130 h1         1 EX8       0.064700
     13 H4          57.7800    40.4260    39.9780 hn         1 EX8       0.434000
     14 H6          56.2170    42.5910    39.4410 h1         1 EX8       0.060700
     15 H7          55.8650    41.4140    40.7150 h1         1 EX8       0.060700
     16 H8          56.0690    43.4140    42.0050 h1         1 EX8       0.057700
     17 H9          57.7940    44.9120    41.4350 ho         1 EX8       0.452000
@<TRIPOS>BOND
     1     1     2 2   
     2     2     3 1   
     3     2    10 1   
     4     3     4 1   
     5     3     6 1   
     6     3    11 1   
     7     4     5 1   
     8     4     8 1   
     9     4    12 1   
    10     6     7 1   
    11     6    13 1   
    12     7     8 1   
    13     7    14 1   
    14     7    15 1   
    15     8     9 1   
    16     8    16 1   
    17     9    17 1   
@<TRIPOS>SUBSTRUCTURE
     1 EX8         1 TEMP              0 ****  ****    0 ROOT
