@<TRIPOS>MOLECULE
EX9
   70    74     1     0     0
SMALL
bcc


@<TRIPOS>ATOM
      1 N1          30.2760    39.6350    26.2370 n7         1 EX9      -0.807100
      2 C2          21.3010    37.3090    27.7530 ca         1 EX9      -0.082000
      3 N3          24.0990    38.6530    25.7550 nc         1 EX9      -0.670000
      4 C4          21.4070    37.5680    25.3730 ca         1 EX9      -0.082000
      5 N4          23.1250    33.1640    29.2490 na         1 EX9      -0.276100
      6 C5          22.0580    37.5650    26.6080 ca         1 EX9      -0.119500
      7 C6          23.4950    37.8400    26.6700 cc         1 EX9       0.382800
      8 O1          31.8160    41.1590    27.4850 o          1 EX9      -0.608300
      9 S           30.9930    41.1320    26.2790 s6         1 EX9       1.174900
     10 O           30.0460    42.2300    26.0970 o          1 EX9      -0.608300
     11 C12         32.0030    41.0580    24.8040 c3         1 EX9      -0.185600
     12 C13         33.1450    40.0510    24.8490 c3         1 EX9      -0.041400
     13 C14         34.4060    40.6210    25.4880 c3         1 EX9       0.158800
     14 N2          35.4980    39.6690    25.5350 n3         1 EX9      -0.711600
     15 C16         36.0340    39.3680    24.2250 c3         1 EX9       0.149600
     16 C15         36.5450    40.1320    26.4190 c3         1 EX9       0.149600
     17 C11         29.6230    39.1400    27.4580 c6         1 EX9       0.205500
     18 C10         28.3160    39.8860    27.7770 c6         1 EX9      -0.094400
     19 C9          27.3790    39.0060    28.5950 c6         1 EX9      -0.085400
     20 C17         29.3790    37.6290    27.3160 c6         1 EX9      -0.094400
     21 C18         27.9850    37.3290    26.7820 c6         1 EX9      -0.085400
     22 C8          26.9310    37.7580    27.8120 c6         1 EX9       0.049000
     23 N           25.6250    37.9430    27.1810 na         1 EX9      -0.176900
     24 C19         25.3610    38.6910    26.0880 cd         1 EX9       0.399400
     25 C1          19.9440    37.0370    27.6720 ca         1 EX9      -0.177000
     26 C3          20.0490    37.3040    25.2740 ca         1 EX9      -0.177000
     27 C           19.3400    37.0360    26.4290 ca         1 EX9       0.133900
     28 F           18.0260    36.7740    26.3410 f          1 EX9      -0.146900
     29 C7          24.4310    37.3840    27.5730 cd         1 EX9      -0.160600
     30 C20         24.2900    36.4610    28.7000 ca         1 EX9       0.065000
     31 C26         24.6210    36.8120    30.0040 ca         1 EX9      -0.276300
     32 C25         24.4380    35.9040    31.0500 ca         1 EX9       0.418200
     33 N5          23.9500    34.6810    30.9000 nb         1 EX9      -0.674000
     34 C22         23.6380    34.3550    29.6570 ca         1 EX9       0.429800
     35 C23         22.9380    33.1970    27.8940 cc         1 EX9      -0.101100
     36 C24         23.3250    34.4070    27.3960 cd         1 EX9      -0.173200
     37 C21         23.7790    35.1730    28.5090 ca         1 EX9      -0.185100
     38 H1          29.6810    39.5480    25.4150 hn         1 EX9       0.406800
     39 H3          21.9700    37.7710    24.4720 ha         1 EX9       0.144000
     40 H4          22.9180    32.3820    29.8490 hn         1 EX9       0.312700
     41 H5          32.3640    42.0800    24.6570 h1         1 EX9       0.096700
     42 H6          31.3060    40.8480    23.9910 h1         1 EX9       0.096700
     43 H7          32.8390    39.1410    25.3670 hc         1 EX9       0.058200
     44 H8          33.3430    39.7620    23.8160 hc         1 EX9       0.058200
     45 H9          34.6910    41.5450    24.9540 h1         1 EX9       0.041700
     46 H10         34.1760    40.9170    26.5130 h1         1 EX9       0.041700
     47 H12         36.8500    38.6500    24.3180 h1         1 EX9       0.031033
     48 H13         35.2800    38.9150    23.5820 h1         1 EX9       0.031033
     49 H14         36.4290    40.2560    23.7060 h1         1 EX9       0.031033
     50 H15         36.1440    40.3030    27.4200 h1         1 EX9       0.031033
     51 H16         37.3290    39.3770    26.5000 h1         1 EX9       0.031033
     52 H17         37.0180    41.0680    26.0840 h1         1 EX9       0.031033
     53 H18         30.3340    39.2890    28.2710 h1         1 EX9       0.092700
     54 H19         28.5330    40.8120    28.3100 hc         1 EX9       0.060200
     55 H20         27.8260    40.1800    26.8440 hc         1 EX9       0.060200
     56 H21         26.5060    39.5710    28.9270 hc         1 EX9       0.058700
     57 H22         27.8930    38.6810    29.5030 hc         1 EX9       0.058700
     58 H23         29.5020    37.1570    28.2940 hc         1 EX9       0.060200
     59 H24         30.1420    37.1930    26.6710 hc         1 EX9       0.060200
     60 H25         27.8410    37.8480    25.8310 hc         1 EX9       0.058700
     61 H26         27.8730    36.2660    26.5670 hc         1 EX9       0.058700
     62 H27         26.8000    36.9400    28.5190 h1         1 EX9       0.079700
     63 H28         26.1200    39.2510    25.5640 h5         1 EX9       0.054100
     64 H29         19.3660    36.8400    28.5650 ha         1 EX9       0.148000
     65 H30         19.5540    37.3030    24.3120 ha         1 EX9       0.148000
     66 H31         25.0020    37.7990    30.2300 ha         1 EX9       0.141000
     67 H32         24.6970    36.1990    32.0600 h4         1 EX9       0.021100
     68 H33         22.5360    32.3400    27.3790 h4         1 EX9       0.168000
     69 H34         23.2840    34.7120    26.3630 ha         1 EX9       0.168000
     70 H2          21.7650    37.3320    28.7300 ha         1 EX9       0.144000
@<TRIPOS>BOND
     1     1     9 1   
     2     1    17 1   
     3     1    38 1   
     4     2     6 ar  
     5     2    25 ar  
     6     2    70 1   
     7     3     7 1   
     8     3    24 2   
     9     4     6 ar  
    10     4    26 ar  
    11     4    39 1   
    12     5    34 1   
    13     5    35 1   
    14     5    40 1   
    15     6     7 1   
    16     7    29 2   
    17     8     9 2   
    18     9    10 2   
    19     9    11 1   
    20    11    12 1   
    21    11    41 1   
    22    11    42 1   
    23    12    13 1   
    24    12    43 1   
    25    12    44 1   
    26    13    14 1   
    27    13    45 1   
    28    13    46 1   
    29    14    15 1   
    30    14    16 1   
    31    15    47 1   
    32    15    48 1   
    33    15    49 1   
    34    16    50 1   
    35    16    51 1   
    36    16    52 1   
    37    17    18 1   
    38    17    20 1   
    39    17    53 1   
    40    18    19 1   
    41    18    54 1   
    42    18    55 1   
    43    19    22 1   
    44    19    56 1   
    45    19    57 1   
    46    20    21 1   
    47    20    58 1   
    48    20    59 1   
    49    21    22 1   
    50    21    60 1   
    51    21    61 1   
    52    22    23 1   
    53    22    62 1   
    54    23    24 1   
    55    23    29 1   
    56    24    63 1   
    57    25    27 ar  
    58    25    64 1   
    59    26    27 ar  
    60    26    65 1   
    61    27    28 1   
    62    29    30 1   
    63    30    31 ar  
    64    30    37 ar  
    65    31    32 ar  
    66    31    66 1   
    67    32    33 ar  
    68    32    67 1   
    69    33    34 ar  
    70    34    37 ar  
    71    35    36 2   
    72    35    68 1   
    73    36    37 1   
    74    36    69 1   
@<TRIPOS>SUBSTRUCTURE
     1 EX9         1 TEMP              0 ****  ****    0 ROOT
