@<TRIPOS>MOLECULE
EX9
   70    74     1     0     0
SMALL
No Charge or Current Charge


@<TRIPOS>ATOM
      1 N1          30.4210    39.9970    26.4930 n7         1 EX9      -0.862300
      2 C2          21.4510    37.2700    27.5980 ca         1 EX9      -0.064000
      3 N3          24.2450    38.5480    25.6050 nc         1 EX9      -0.670000
      4 C4          21.7150    36.9720    25.1980 ca         1 EX9      -0.064000
      5 N4          22.9470    33.2370    29.2120 na         1 EX9      -0.326400
      6 C5          22.2800    37.2870    26.4540 ca         1 EX9      -0.119500
      7 C6          23.6780    37.7290    26.5370 cc         1 EX9       0.317500
      8 O1          32.0460    41.5810    27.5830 o          1 EX9      -0.537500
      9 S           31.0770    41.5310    26.4870 s6         1 EX9       1.144100
     10 O           29.9560    42.4700    26.4320 o          1 EX9      -0.537500
     11 C12         31.9630    41.5630    24.9140 c3         1 EX9      -0.296400
     12 C13         32.9220    40.3680    24.6300 c3         1 EX9      -0.041400
     13 C14         34.1710    40.2900    25.5470 c3         1 EX9       0.158800
     14 N2          35.1270    39.1950    25.2230 n3         1 EX9      -0.711600
     15 C16         35.7600    39.3190    23.8880 c3         1 EX9       0.149600
     16 C15         36.1350    39.0100    26.2910 c3         1 EX9       0.149600
     17 C11         29.7040    39.5050    27.6830 c6         1 EX9       0.205500
     18 C10         28.3410    40.2410    27.8920 c6         1 EX9      -0.094400
     19 C9          27.3280    39.3770    28.6870 c6         1 EX9      -0.085400
     20 C17         29.5230    37.9600    27.5720 c6         1 EX9      -0.094400
     21 C18         28.1370    37.5730    27.0010 c6         1 EX9      -0.085400
     22 C8          26.9940    38.0380    27.9580 c6         1 EX9       0.078300
     23 N           25.6840    38.1180    27.2570 na         1 EX9      -0.155500
     24 C19         25.4650    38.7930    26.0600 cd         1 EX9       0.399400
     25 C1          20.1030    36.8830    27.4970 ca         1 EX9      -0.159000
     26 C3          20.3670    36.5840    25.0980 ca         1 EX9      -0.159000
     27 C           19.5680    36.5340    26.2490 ca         1 EX9       0.169000
     28 F           18.2730    36.1630    26.1520 f          1 EX9      -0.182000
     29 C7          24.5090    37.4510    27.6020 cd         1 EX9      -0.146000
     30 C20         24.3340    36.4940    28.7180 ca         1 EX9       0.065000
     31 C26         24.7740    36.8110    30.0190 ca         1 EX9      -0.193000
     32 C25         24.5620    35.9010    31.0760 ca         1 EX9       0.352900
     33 N5          23.9540    34.7010    30.9150 nb         1 EX9      -0.674000
     34 C22         23.5480    34.3940    29.6710 ca         1 EX9       0.364500
     35 C23         22.7460    33.2670    27.8150 cc         1 EX9      -0.151100
     36 C24         23.2390    34.5030    27.4390 cd         1 EX9      -0.223200
     37 C21         23.7210    35.2330    28.5900 ca         1 EX9      -0.119800
     38 H1          29.7970    40.0210    25.6910 hn         1 EX9       0.462000
     39 H3          22.3280    37.0140    24.2990 ha         1 EX9       0.126000
     40 H4          22.7030    32.4670    29.8220 hn         1 EX9       0.363000
     41 H5          32.5120    42.5110    24.8940 h1         1 EX9       0.096700
     42 H6          31.1840    41.5960    24.1450 h1         1 EX9       0.096700
     43 H7          32.3740    39.4200    24.6880 hc         1 EX9       0.058200
     44 H8          33.2500    40.4670    23.5890 hc         1 EX9       0.058200
     45 H9          34.6910    41.2580    25.5140 h1         1 EX9       0.041700
     46 H10         33.8220    40.1490    26.5770 h1         1 EX9       0.041700
     47 H12         36.4710    38.4980    23.7200 h1         1 EX9       0.031033
     48 H13         35.0150    39.2710    23.0840 h1         1 EX9       0.031033
     49 H14         36.3070    40.2670    23.7990 h1         1 EX9       0.031033
     50 H15         35.6490    38.8310    27.2590 h1         1 EX9       0.031033
     51 H16         36.7780    38.1460    26.0740 h1         1 EX9       0.031033
     52 H17         36.7740    39.8990    26.3860 h1         1 EX9       0.031033
     53 H18         30.3360    39.6810    28.5700 h1         1 EX9       0.092700
     54 H19         28.5100    41.1870    28.4230 hc         1 EX9       0.060200
     55 H20         27.8970    40.5080    26.9240 hc         1 EX9       0.060200
     56 H21         26.4120    39.9500    28.8870 hc         1 EX9       0.058700
     57 H22         27.7570    39.1500    29.6730 hc         1 EX9       0.058700
     58 H23         29.6360    37.5120    28.5690 hc         1 EX9       0.060200
     59 H24         30.3240    37.5230    26.9590 hc         1 EX9       0.060200
     60 H25         28.0330    38.0160    26.0020 hc         1 EX9       0.058700
     61 H26         28.0760    36.4850    26.8590 hc         1 EX9       0.058700
     62 H27         26.9170    37.2650    28.7330 h1         1 EX9       0.079700
     63 H28         26.2240    39.4000    25.5820 h5         1 EX9       0.054100
     64 H29         19.4730    36.8580    28.3820 ha         1 EX9       0.130000
     65 H30         19.9430    36.3270    24.1310 ha         1 EX9       0.130000
     66 H31         25.2400    37.7670    30.2310 ha         1 EX9       0.123000
     67 H32         24.8850    36.1470    32.0870 h4         1 EX9       0.021100
     68 H33         22.3120    32.4500    27.2410 h4         1 EX9       0.218000
     69 H34         23.2830    34.8450    26.4080 ha         1 EX9       0.218000
     70 H2          21.8460    37.5600    28.5690 ha         1 EX9       0.126000
@<TRIPOS>BOND
     1     1     9 1   
     2     1    17 1   
     3     1    38 1   
     4     2     6 ar  
     5     2    25 ar  
     6     2    70 1   
     7     3     7 1   
     8     3    24 2   
     9     4     6 ar  
    10     4    26 ar  
    11     4    39 1   
    12     5    34 1   
    13     5    35 1   
    14     5    40 1   
    15     6     7 1   
    16     7    29 2   
    17     8     9 2   
    18     9    10 2   
    19     9    11 1   
    20    11    12 1   
    21    11    41 1   
    22    11    42 1   
    23    12    13 1   
    24    12    43 1   
    25    12    44 1   
    26    13    14 1   
    27    13    45 1   
    28    13    46 1   
    29    14    15 1   
    30    14    16 1   
    31    15    47 1   
    32    15    48 1   
    33    15    49 1   
    34    16    50 1   
    35    16    51 1   
    36    16    52 1   
    37    17    18 1   
    38    17    20 1   
    39    17    53 1   
    40    18    19 1   
    41    18    54 1   
    42    18    55 1   
    43    19    22 1   
    44    19    56 1   
    45    19    57 1   
    46    20    21 1   
    47    20    58 1   
    48    20    59 1   
    49    21    22 1   
    50    21    60 1   
    51    21    61 1   
    52    22    23 1   
    53    22    62 1   
    54    23    24 1   
    55    23    29 1   
    56    24    63 1   
    57    25    27 ar  
    58    25    64 1   
    59    26    27 ar  
    60    26    65 1   
    61    27    28 1   
    62    29    30 1   
    63    30    31 ar  
    64    30    37 ar  
    65    31    32 ar  
    66    31    66 1   
    67    32    33 ar  
    68    32    67 1   
    69    33    34 ar  
    70    34    37 ar  
    71    35    36 2   
    72    35    68 1   
    73    36    37 1   
    74    36    69 1   
@<TRIPOS>SUBSTRUCTURE
     1 EX9         1 TEMP              0 ****  ****    0 ROOT
