@<TRIPOS>MOLECULE
EXA
   54    54     1     0     0
SMALL
bcc


@<TRIPOS>ATOM
      1 N           -6.4860     2.0860    -1.2060 n8         1 EXA      -0.891800
      2 CA          -6.6290     0.8410    -0.4670 c3         1 EXA       0.026500
      3 CB          -5.4320     0.4840     0.4310 c3         1 EXA      -0.098400
      4 CG          -4.1250     0.2780    -0.3240 c3         1 EXA      -0.079400
      5 CD          -2.9610    -0.0750     0.5930 c3         1 EXA      -0.076400
      6 CE          -1.6710    -0.3220    -0.1740 c3         1 EXA       0.158800
      7 NZ          -0.5710    -0.6070     0.7310 n7         1 EXA      -0.824200
      8 C4           0.6840    -0.8680     0.0590 c3         1 EXA       0.507000
      9 C1           1.8120    -0.9410     1.0750 ca         1 EXA      -0.077300
     10 C3           1.8610    -1.9690     2.0130 ca         1 EXA       0.023800
     11 O3           0.8790    -2.8980     1.9860 oh         1 EXA      -0.501100
     12 C2           2.9000    -2.0220     2.9480 ca         1 EXA       0.257600
     13 C10          2.9530    -3.1170     3.9730 c3         1 EXA      -0.120400
     14 C5           2.8340     0.0110     1.0970 ca         1 EXA      -0.091600
     15 C6           3.8270    -0.1270     2.0580 ca         1 EXA       0.380200
     16 N1           3.8570    -1.1060     2.9540 nb         1 EXA      -0.697000
     17 C11          2.8680     1.1530     0.1070 c3         1 EXA       0.245700
     18 OP4          4.0060     1.9290     0.2690 os         1 EXA      -0.568200
     19 P            3.8890     3.5740    -0.2050 p5         1 EXA       1.278900
     20 OP1          3.3910     3.5240    -1.6450 o          1 EXA      -0.928500
     21 OP2          2.8970     4.1840     0.7780 o          1 EXA      -0.928500
     22 OP3          5.3340     4.0160    -0.0280 o          1 EXA      -0.928500
     23 C           -7.9020     0.8680     0.4060 c          1 EXA       0.933600
     24 O1          -8.3510     1.9860     0.7310 o          1 EXA      -0.858300
     25 N3           0.7170    -2.0140    -0.8150 nu         1 EXA      -0.809000
     26 C7           0.6250    -1.9770    -2.1800 ce         1 EXA       0.037800
     27 C8           0.3880    -3.3690    -2.7970 c          1 EXA       0.920800
     28 C9           0.7340    -0.8940    -2.9680 c2         1 EXA      -0.365000
     29 O10          0.2220    -4.2980    -1.9810 o          1 EXA      -0.853800
     30 O11          0.3730    -3.4520    -4.0360 o          1 EXA      -0.853800
     31 OXT         -8.3540    -0.2420     0.7540 o          1 EXA      -0.858300
     32 H1          -6.5650     2.8560    -0.5530 hn         1 EXA       0.325800
     33 H2          -5.5630     2.1470    -1.6170 hn         1 EXA       0.325800
     34 H4          -6.7410     0.0280    -1.1960 h1         1 EXA       0.040700
     35 H5          -5.3010     1.2750     1.1800 hc         1 EXA       0.036700
     36 H6          -5.6680    -0.4310     0.9820 hc         1 EXA       0.036700
     37 H7          -4.2600    -0.5140    -1.0690 hc         1 EXA       0.030700
     38 H8          -3.8640     1.1830    -0.8840 hc         1 EXA       0.030700
     39 H9          -2.8040     0.7300     1.3180 hc         1 EXA       0.030200
     40 H10         -3.2130    -0.9710     1.1730 hc         1 EXA       0.030200
     41 H11         -1.8360    -1.1240    -0.9080 h1         1 EXA       0.042700
     42 H12         -1.4120     0.5720    -0.7510 h1         1 EXA       0.042700
     43 H13         -0.8180    -1.3920     1.3220 hn         1 EXA       0.340800
     44 H15          0.8610    -0.0000    -0.5740 h2         1 EXA       0.100700
     45 H16          1.0100    -3.5680     2.6660 ho         1 EXA       0.396000
     46 H17          3.0350    -4.1080     3.5180 hc         1 EXA       0.016033
     47 H18          3.8210    -2.9810     4.6140 hc         1 EXA       0.016033
     48 H19          2.0670    -3.1230     4.6130 hc         1 EXA       0.016033
     49 H20          4.6350     0.5920     2.1090 h4         1 EXA       0.057100
     50 H21          2.8140     0.7370    -0.9110 h1         1 EXA       0.035700
     51 H22          1.9490     1.7440     0.2350 h1         1 EXA       0.035700
     52 H25          0.6650    -1.0100    -4.0380 ha         1 EXA       0.108500
     53 H26          0.8880     0.1110    -2.5960 ha         1 EXA       0.108500
     54 H3           0.4990    -2.9190    -0.4240 hn         1 EXA       0.435800
@<TRIPOS>BOND
     1     1     2 1   
     2     1    32 1   
     3     1    33 1   
     4     2     3 1   
     5     2    23 1   
     6     2    34 1   
     7     3     4 1   
     8     3    35 1   
     9     3    36 1   
    10     4     5 1   
    11     4    37 1   
    12     4    38 1   
    13     5     6 1   
    14     5    39 1   
    15     5    40 1   
    16     6     7 1   
    17     6    41 1   
    18     6    42 1   
    19     7     8 1   
    20     7    43 1   
    21     8     9 1   
    22     8    25 1   
    23     8    44 1   
    24     9    10 ar  
    25     9    14 ar  
    26    10    11 1   
    27    10    12 ar  
    28    11    45 1   
    29    12    13 1   
    30    12    16 ar  
    31    13    46 1   
    32    13    47 1   
    33    13    48 1   
    34    14    15 ar  
    35    14    17 1   
    36    15    16 ar  
    37    15    49 1   
    38    17    18 1   
    39    17    50 1   
    40    17    51 1   
    41    18    19 1   
    42    19    20 1   
    43    19    21 1   
    44    19    22 1   
    45    23    24 1   
    46    23    31 1   
    47    25    26 1   
    48    25    54 1   
    49    26    27 1   
    50    26    28 2   
    51    27    29 1   
    52    27    30 1   
    53    28    52 1   
    54    28    53 1   
@<TRIPOS>SUBSTRUCTURE
     1 EXA         1 TEMP              0 ****  ****    0 ROOT
