@<TRIPOS>MOLECULE
EXA
   54    54     1     0     0
SMALL
No Charge or Current Charge


@<TRIPOS>ATOM
      1 N           -6.6610     2.1520    -1.0600 n8         1 EXA      -0.891800
      2 CA          -6.8160     0.8420    -0.3220 c3         1 EXA       0.026500
      3 CB          -5.5410     0.5510     0.5160 c3         1 EXA      -0.098400
      4 CG          -4.2490     0.3620    -0.3190 c3         1 EXA      -0.079400
      5 CD          -3.0190     0.0040     0.5460 c3         1 EXA      -0.076400
      6 CE          -1.7340    -0.1870    -0.2870 c3         1 EXA       0.158800
      7 NZ          -0.6030    -0.5280     0.5990 n7         1 EXA      -0.824200
      8 C4           0.6940    -0.7080    -0.0300 c3         1 EXA       0.507000
      9 C1           1.7900    -0.8740     1.0420 ca         1 EXA      -0.077300
     10 C3           1.7830    -1.9620     1.9600 ca         1 EXA       0.023800
     11 O3           0.7860    -2.9130     1.9280 oh         1 EXA      -0.501100
     12 C2           2.8240    -2.0610     2.9200 ca         1 EXA       0.257600
     13 C10          2.8690    -3.2050     3.9290 c3         1 EXA      -0.120400
     14 C5           2.8510     0.0680     1.1470 ca         1 EXA      -0.091600
     15 C6           3.8380    -0.1310     2.1380 ca         1 EXA       0.380200
     16 N1           3.8320    -1.1690     3.0080 nb         1 EXA      -0.697000
     17 C11          2.9360     1.2760     0.2060 c3         1 EXA       0.245700
     18 OP4          3.9940     2.1590     0.5890 os         1 EXA      -0.568200
     19 P            4.2550     3.4820    -0.2870 p5         1 EXA       1.278900
     20 OP1          4.5930     3.0990    -1.6840 o          1 EXA      -0.928500
     21 OP2          3.0400     4.3400    -0.2700 o          1 EXA      -0.928500
     22 OP3          5.3940     4.2300     0.3080 o          1 EXA      -0.928500
     23 C           -8.1330     0.6540     0.5600 c          1 EXA       0.933600
     24 O1          -8.3770     1.4670     1.4490 o          1 EXA      -0.858300
     25 N3           0.5640    -1.9240    -0.8010 nu         1 EXA      -0.809000
     26 C7           0.6380    -2.0980    -2.2180 ce         1 EXA       0.037800
     27 C8           0.8540    -3.5580    -2.7390 c          1 EXA       0.920800
     28 C9           0.5630    -1.0330    -3.0560 c2         1 EXA      -0.365000
     29 O10          0.9370    -4.4770    -1.9240 o          1 EXA      -0.853800
     30 O11          0.9400    -3.7700    -3.9470 o          1 EXA      -0.853800
     31 OXT         -8.9130    -0.2500     0.2740 o          1 EXA      -0.858300
     32 H1          -6.6750     2.9170    -0.3770 hn         1 EXA       0.325800
     33 H2          -5.7240     2.1920    -1.4720 hn         1 EXA       0.325800
     34 H4          -6.8680     0.0620    -1.0940 h1         1 EXA       0.040700
     35 H5          -5.3910     1.3560     1.2470 hc         1 EXA       0.036700
     36 H6          -5.7120    -0.3650     1.0950 hc         1 EXA       0.036700
     37 H7          -4.4110    -0.4320    -1.0580 hc         1 EXA       0.030700
     38 H8          -4.0310     1.2810    -0.8770 hc         1 EXA       0.030700
     39 H9          -2.8550     0.7980     1.2850 hc         1 EXA       0.030200
     40 H10         -3.2270    -0.9190     1.1020 hc         1 EXA       0.030200
     41 H11         -1.9090    -0.9810    -1.0260 h1         1 EXA       0.042700
     42 H12         -1.5240     0.7410    -0.8370 h1         1 EXA       0.042700
     43 H13         -0.8000    -1.4130     1.0660 hn         1 EXA       0.340800
     44 H15          0.9180     0.1430    -0.6850 h2         1 EXA       0.100700
     45 H16          0.9450    -3.5620     2.6460 ho         1 EXA       0.396000
     46 H17          2.9270    -4.1750     3.4200 hc         1 EXA       0.016033
     47 H18          3.7380    -3.1360     4.5960 hc         1 EXA       0.016033
     48 H19          1.9730    -3.2080     4.5600 hc         1 EXA       0.016033
     49 H20          4.6750     0.5570     2.2530 h4         1 EXA       0.057100
     50 H21          3.0920     0.9130    -0.8180 h1         1 EXA       0.035700
     51 H22          1.9770     1.8110     0.2310 h1         1 EXA       0.035700
     52 H25          0.6350    -1.1600    -4.1350 ha         1 EXA       0.108500
     53 H26          0.4140    -0.0140    -2.7070 ha         1 EXA       0.108500
     54 H3           0.6710    -2.7740    -0.2450 hn         1 EXA       0.435800
@<TRIPOS>BOND
     1     1     2 1   
     2     1    32 1   
     3     1    33 1   
     4     2     3 1   
     5     2    23 1   
     6     2    34 1   
     7     3     4 1   
     8     3    35 1   
     9     3    36 1   
    10     4     5 1   
    11     4    37 1   
    12     4    38 1   
    13     5     6 1   
    14     5    39 1   
    15     5    40 1   
    16     6     7 1   
    17     6    41 1   
    18     6    42 1   
    19     7     8 1   
    20     7    43 1   
    21     8     9 1   
    22     8    25 1   
    23     8    44 1   
    24     9    10 ar  
    25     9    14 ar  
    26    10    11 1   
    27    10    12 ar  
    28    11    45 1   
    29    12    13 1   
    30    12    16 ar  
    31    13    46 1   
    32    13    47 1   
    33    13    48 1   
    34    14    15 ar  
    35    14    17 1   
    36    15    16 ar  
    37    15    49 1   
    38    17    18 1   
    39    17    50 1   
    40    17    51 1   
    41    18    19 1   
    42    19    20 1   
    43    19    21 1   
    44    19    22 1   
    45    23    24 1   
    46    23    31 1   
    47    25    26 1   
    48    25    54 1   
    49    26    27 1   
    50    26    28 2   
    51    27    29 1   
    52    27    30 1   
    53    28    52 1   
    54    28    53 1   
@<TRIPOS>SUBSTRUCTURE
     1 EXA         1 TEMP              0 ****  ****    0 ROOT
