@<TRIPOS>MOLECULE
EXB
   23    24     1     0     0
SMALL
abcg2


@<TRIPOS>ATOM
      1 C2          -1.2260    -1.4660     0.3670 ca         1 EXB      -0.090000
      2 C5          -3.5030     0.0600    -0.4060 ca         1 EXB      -0.065000
      3 C4          -3.5700    -1.3140    -0.2640 ca         1 EXB      -0.148000
      4 C3          -2.4480    -2.0660     0.1190 ca         1 EXB      -0.120000
      5 C6          -2.2800     0.6850    -0.1620 ca         1 EXB       0.058400
      6 C11          1.9840    -0.0760    -0.4870 c3         1 EXB      -0.237400
      7 N9          -0.1470     0.8180     0.3820 na         1 EXB      -0.158600
      8 C1          -1.1650    -0.0840     0.2170 ca         1 EXB      -0.079200
      9 C8          -0.6680     2.0350     0.0980 cc         1 EXB       0.416700
     10 N7          -1.9310     2.0130    -0.2260 nd         1 EXB      -0.613100
     11 C12          3.4580    -0.4120    -0.1920 c          1 EXB       0.723000
     12 O            3.9040    -0.0870     0.9250 o          1 EXB      -0.731000
     13 H2          -0.3640    -2.0520     0.6600 ha         1 EXB       0.130000
     14 H5          -4.3720     0.6360    -0.6990 ha         1 EXB       0.112000
     15 H4          -4.5060    -1.8240    -0.4510 ha         1 EXB       0.096000
     16 H3          -2.5410    -3.1390     0.2200 ha         1 EXB       0.100000
     17 H11          1.4780    -0.9820    -0.8360 hc         1 EXB       0.033700
     18 H10          1.2520    -0.1620     1.5520 h1         1 EXB       0.062700
     19 H10A         1.7070     1.4450     1.0240 h1         1 EXB       0.062700
     20 H8          -0.0580     2.9260     0.1530 h5         1 EXB       0.055800
     21 OXT          4.0800    -0.9790    -1.1110 o          1 EXB      -0.731000
     22 H9           1.9460     0.6260    -1.3260 hc         1 EXB       0.033700
     23 C10          1.2390     0.5170     0.6990 c3         1 EXB       0.088600
@<TRIPOS>BOND
     1     1     4 ar  
     2     1     8 ar  
     3     1    13 1   
     4     2     3 ar  
     5     2     5 ar  
     6     2    14 1   
     7     3     4 ar  
     8     3    15 1   
     9     4    16 1   
    10     5     8 ar  
    11     5    10 1   
    12     6    11 1   
    13     6    17 1   
    14     6    22 1   
    15     6    23 1   
    16     7     8 1   
    17     7     9 1   
    18     7    23 1   
    19     9    10 2   
    20     9    20 1   
    21    11    12 1   
    22    11    21 1   
    23    18    23 1   
    24    19    23 1   
@<TRIPOS>SUBSTRUCTURE
     1 EXB         1 TEMP              0 ****  ****    0 ROOT
