@<TRIPOS>MOLECULE
EXB
   23    24     1     0     0
SMALL
No Charge or Current Charge


@<TRIPOS>ATOM
      1 C2          -1.2140    -1.4830     0.2310 ca         1 EXB      -0.090000
      2 C5          -3.5320     0.0640    -0.3270 ca         1 EXB      -0.065000
      3 C4          -3.6080    -1.3460    -0.2770 ca         1 EXB      -0.148000
      4 C3          -2.4530    -2.1160    -0.0000 ca         1 EXB      -0.120000
      5 C6          -2.2900     0.6740    -0.0950 ca         1 EXB       0.058400
      6 C11          2.0520     0.0270    -0.5780 c3         1 EXB      -0.237400
      7 N9          -0.1540     0.7990     0.3480 na         1 EXB      -0.158600
      8 C1          -1.1820    -0.0810     0.1740 ca         1 EXB      -0.079200
      9 C8          -0.6730     2.0840     0.1760 cc         1 EXB       0.416700
     10 N7          -1.9960     2.0380    -0.0990 nd         1 EXB      -0.613100
     11 C12          3.4650    -0.3600    -0.1380 c          1 EXB       0.723000
     12 O            4.2980     0.5270    -0.0430 o          1 EXB      -0.731000
     13 H2          -0.3210    -2.0660     0.4420 ha         1 EXB       0.130000
     14 H5          -4.4130     0.6630    -0.5400 ha         1 EXB       0.112000
     15 H4          -4.5590    -1.8410    -0.4550 ha         1 EXB       0.096000
     16 H3          -2.5210    -3.2010     0.0340 ha         1 EXB       0.100000
     17 H11          1.5410    -0.8280    -1.0370 hc         1 EXB       0.033700
     18 H10          1.2000    -0.4460     1.3670 h1         1 EXB       0.062700
     19 H10A         1.7150     1.2380     1.1900 h1         1 EXB       0.062700
     20 H8          -0.0610     2.9740     0.2620 h5         1 EXB       0.055800
     21 OXT          3.6750    -1.5260     0.1580 o          1 EXB      -0.731000
     22 H9           2.0740     0.9240    -1.2080 hc         1 EXB       0.033700
     23 C10          1.2270     0.4030     0.6700 c3         1 EXB       0.088600
@<TRIPOS>BOND
     1     1     4 ar  
     2     1     8 ar  
     3     1    13 1   
     4     2     3 ar  
     5     2     5 ar  
     6     2    14 1   
     7     3     4 ar  
     8     3    15 1   
     9     4    16 1   
    10     5     8 ar  
    11     5    10 1   
    12     6    11 1   
    13     6    17 1   
    14     6    22 1   
    15     6    23 1   
    16     7     8 1   
    17     7     9 1   
    18     7    23 1   
    19     9    10 2   
    20     9    20 1   
    21    11    12 1   
    22    11    21 1   
    23    18    23 1   
    24    19    23 1   
@<TRIPOS>SUBSTRUCTURE
     1 EXB         1 TEMP              0 ****  ****    0 ROOT
