@<TRIPOS>MOLECULE
EXE
   65    67     1     0     0
SMALL
bcc


@<TRIPOS>ATOM
      1 CAA          8.1180     1.0830    -1.6850 c3         1 EXE      -0.178100
      2 CAV          7.2260     0.2770    -0.7750 c          1 EXE       0.672100
      3 OAF          7.5600    -0.8250    -0.3590 o          1 EXE      -0.620100
      4 N            6.0580     0.8660    -0.4590 ns         1 EXE      -0.563900
      5 CA           5.0510     0.2690     0.3840 c3         1 EXE       0.047700
      6 CB           4.8950     1.0200     1.7400 c3         1 EXE      -0.046000
      7 CG1          3.8870     0.2840     2.6230 c3         1 EXE      -0.089767
      8 CAE          6.2560     1.0130     2.4390 c3         1 EXE      -0.089767
      9 CG2          4.4350     2.4650     1.5470 c3         1 EXE      -0.089767
     10 C            3.7540     0.2240    -0.4190 c          1 EXE       0.675100
     11 O            3.4460     1.1620    -1.1440 o          1 EXE      -0.611100
     12 NBG          2.9580    -0.8540    -0.3190 n          1 EXE      -0.454800
     13 CAQ          3.2190    -2.1360     0.3210 c5         1 EXE       0.071000
     14 CBC          2.3770    -3.0980    -0.5090 c5         1 EXE       0.101100
     15 OAI          2.9590    -3.3800    -1.7550 oh         1 EXE      -0.589800
     16 CBD          1.1420    -2.2600    -0.8070 c5         1 EXE       0.171600
     17 FAJ          0.3350    -2.2510     0.3250 f          1 EXE      -0.230300
     18 CBF          1.7100    -0.8630    -1.0540 c5         1 EXE      -0.002300
     19 CAW          0.7580     0.2300    -0.5700 c          1 EXE       0.678100
     20 OAG          0.8270     0.7060     0.5470 o          1 EXE      -0.572100
     21 NAS         -0.1620     0.5840    -1.4820 ns         1 EXE      -0.570900
     22 CAP         -1.1530     1.6030    -1.2580 c3         1 EXE       0.148300
     23 CAZ         -2.5090     1.0950    -0.8270 ca         1 EXE      -0.096300
     24 CAL         -2.7110    -0.1800    -0.3150 ca         1 EXE      -0.120000
     25 CAN         -3.9750    -0.5920     0.0830 ca         1 EXE      -0.112000
     26 CAK         -3.6030     1.9520    -0.9190 ca         1 EXE      -0.120000
     27 CAM         -4.8630     1.5500    -0.5120 ca         1 EXE      -0.112000
     28 CBA         -5.0720     0.2630    -0.0120 ca         1 EXE      -0.010000
     29 CBB         -6.4080    -0.1700     0.4010 cc         1 EXE      -0.102400
     30 SAU         -6.6440    -1.0790     1.8500 ss         1 EXE      -0.170300
     31 CAO         -8.3260    -1.1170     1.5340 cc         1 EXE       0.410300
     32 NAR         -8.6880    -0.5100     0.4510 nd         1 EXE      -0.637000
     33 CAY         -7.6190     0.0320    -0.2080 cd         1 EXE       0.362600
     34 CAB         -7.8500     0.7480    -1.4980 c3         1 EXE      -0.121400
     35 H1           8.3320     0.5100    -2.5870 hc         1 EXE       0.061700
     36 H2           7.6920     2.0410    -1.9760 hc         1 EXE       0.061700
     37 H3           9.0690     1.2680    -1.1850 hc         1 EXE       0.061700
     38 H4           5.8360     1.7510    -0.8840 hn         1 EXE       0.331500
     39 H5           5.3990    -0.7380     0.6180 h1         1 EXE       0.086700
     40 H6           4.1930    -0.7490     2.8020 hc         1 EXE       0.040700
     41 H7           3.8180     0.7750     3.5950 hc         1 EXE       0.040700
     42 H8           2.8860     0.2770     2.1910 hc         1 EXE       0.040700
     43 H9           7.0070     1.5730     1.8800 hc         1 EXE       0.040700
     44 H10          6.1690     1.4750     3.4250 hc         1 EXE       0.040700
     45 H11          6.6280    -0.0040     2.5810 hc         1 EXE       0.040700
     46 H12          3.4230     2.5250     1.1480 hc         1 EXE       0.040700
     47 H13          4.4390     2.9790     2.5100 hc         1 EXE       0.040700
     48 H14          5.0980     3.0250     0.8850 hc         1 EXE       0.040700
     49 H15          4.2750    -2.4030     0.2990 h1         1 EXE       0.070200
     50 H16          2.8930    -2.1420     1.3630 h1         1 EXE       0.070200
     51 H17          2.1270    -4.0050     0.0510 h1         1 EXE       0.070700
     52 H18          3.7980    -3.8280    -1.6080 ho         1 EXE       0.419000
     53 H19          0.5500    -2.6320    -1.6430 h1         1 EXE       0.086700
     54 H20          1.8950    -0.7410    -2.1260 h1         1 EXE       0.087700
     55 H21         -0.1370     0.1550    -2.3940 hn         1 EXE       0.314500
     56 H22         -0.7720     2.2980    -0.5070 h1         1 EXE       0.066700
     57 H23         -1.2600     2.1770    -2.1800 h1         1 EXE       0.066700
     58 H24         -1.8870    -0.8750    -0.2300 ha         1 EXE       0.135500
     59 H25         -4.1050    -1.6000     0.4580 ha         1 EXE       0.136500
     60 H26         -3.4700     2.9550    -1.3090 ha         1 EXE       0.135500
     61 H27         -5.6870     2.2490    -0.5700 ha         1 EXE       0.136500
     62 H28         -9.0090    -1.6180     2.2050 h5         1 EXE       0.052100
     63 H29         -8.1210     1.7920    -1.3330 hc         1 EXE       0.051367
     64 H30         -6.9630     0.7350    -2.1300 hc         1 EXE       0.051367
     65 H31         -8.6680     0.2810    -2.0450 hc         1 EXE       0.051367
@<TRIPOS>BOND
     1     1     2 1   
     2     1    35 1   
     3     1    36 1   
     4     1    37 1   
     5     2     3 2   
     6     2     4 1   
     7     4     5 1   
     8     4    38 1   
     9     5     6 1   
    10     5    10 1   
    11     5    39 1   
    12     6     7 1   
    13     6     8 1   
    14     6     9 1   
    15     7    40 1   
    16     7    41 1   
    17     7    42 1   
    18     8    43 1   
    19     8    44 1   
    20     8    45 1   
    21     9    46 1   
    22     9    47 1   
    23     9    48 1   
    24    10    11 2   
    25    10    12 1   
    26    12    13 1   
    27    12    18 1   
    28    13    14 1   
    29    13    49 1   
    30    13    50 1   
    31    14    15 1   
    32    14    16 1   
    33    14    51 1   
    34    15    52 1   
    35    16    17 1   
    36    16    18 1   
    37    16    53 1   
    38    18    19 1   
    39    18    54 1   
    40    19    20 2   
    41    19    21 1   
    42    21    22 1   
    43    21    55 1   
    44    22    23 1   
    45    22    56 1   
    46    22    57 1   
    47    23    24 ar  
    48    23    26 ar  
    49    24    25 ar  
    50    24    58 1   
    51    25    28 ar  
    52    25    59 1   
    53    26    27 ar  
    54    26    60 1   
    55    27    28 ar  
    56    27    61 1   
    57    28    29 1   
    58    29    30 1   
    59    29    33 2   
    60    30    31 1   
    61    31    32 2   
    62    31    62 1   
    63    32    33 1   
    64    33    34 1   
    65    34    63 1   
    66    34    64 1   
    67    34    65 1   
@<TRIPOS>SUBSTRUCTURE
     1 EXE         1 TEMP              0 ****  ****    0 ROOT
