@<TRIPOS>MOLECULE
EXE
   65    67     1     0     0
SMALL
No Charge or Current Charge


@<TRIPOS>ATOM
      1 CAA          8.4750     1.1080    -0.9460 c3         1 EXE      -0.178100
      2 CAV          7.4070     0.1840    -0.3790 c          1 EXE       0.605100
      3 OAF          7.6330    -0.9810    -0.0870 o          1 EXE      -0.620100
      4 N            6.1680     0.7620    -0.2280 ns         1 EXE      -0.496900
      5 CA           4.9600     0.0850     0.3100 c3         1 EXE       0.047700
      6 CB           4.7060     0.4580     1.8230 c3         1 EXE      -0.046000
      7 CG1          3.5240    -0.3560     2.4150 c3         1 EXE      -0.089767
      8 CAE          5.9660     0.1360     2.6770 c3         1 EXE      -0.089767
      9 CG2          4.3840     1.9720     1.9750 c3         1 EXE      -0.089767
     10 C            3.7490     0.3990    -0.6380 c          1 EXE       0.608100
     11 O            3.6900     1.4560    -1.2600 o          1 EXE      -0.611100
     12 NBG          2.6920    -0.5340    -0.7470 n          1 EXE      -0.387800
     13 CAQ          2.8840    -2.0000    -0.5960 c5         1 EXE       0.071000
     14 CBC          1.6890    -2.6080    -1.4000 c5         1 EXE       0.124300
     15 OAI          2.0210    -2.8230    -2.7830 oh         1 EXE      -0.652000
     16 CBD          0.5960    -1.5120    -1.2240 c5         1 EXE       0.190300
     17 FAJ          0.0540    -1.5720     0.0670 f          1 EXE      -0.249000
     18 CBF          1.4160    -0.2060    -1.4460 c5         1 EXE      -0.002300
     19 CAW          0.6130     0.9900    -0.8580 c          1 EXE       0.611100
     20 OAG          0.7680     1.5300     0.2300 o          1 EXE      -0.572100
     21 NAS         -0.3290     1.4020    -1.7780 ns         1 EXE      -0.503900
     22 CAP         -1.3070     2.4620    -1.5360 c3         1 EXE       0.148300
     23 CAZ         -2.5930     1.8950    -0.9550 ca         1 EXE      -0.096300
     24 CAL         -2.7540     1.7820     0.4390 ca         1 EXE      -0.102000
     25 CAN         -3.9380     1.2460     0.9750 ca         1 EXE      -0.094000
     26 CAK         -3.6300     1.4670    -1.8050 ca         1 EXE      -0.102000
     27 CAM         -4.8130     0.9310    -1.2670 ca         1 EXE      -0.094000
     28 CBA         -4.9710     0.8070     0.1270 ca         1 EXE      -0.010000
     29 CBB         -6.1980     0.2590     0.7000 cc         1 EXE      -0.182000
     30 SAU         -7.1270     1.0140     1.9580 ss         1 EXE      -0.025400
     31 CAO         -8.1840    -0.3730     1.8830 cc         1 EXE       0.410300
     32 NAR         -7.8520    -1.3330     1.0240 nd         1 EXE      -0.637000
     33 CAY         -6.6950    -0.9790     0.3440 cd         1 EXE       0.297300
     34 CAB         -6.1130    -1.9470    -0.6530 c3         1 EXE      -0.121400
     35 H1           8.1210     1.5220    -1.8970 hc         1 EXE       0.061700
     36 H2           8.5450     2.0010    -0.3150 hc         1 EXE       0.061700
     37 H3           9.4460     0.6130    -1.0570 hc         1 EXE       0.061700
     38 H4           6.0750     1.7230    -0.5370 hn         1 EXE       0.331500
     39 H5           5.1340    -0.9960     0.2580 h1         1 EXE       0.086700
     40 H6           3.7170    -1.4330     2.3470 hc         1 EXE       0.040700
     41 H7           3.3760    -0.1150     3.4750 hc         1 EXE       0.040700
     42 H8           2.5810    -0.1360     1.9010 hc         1 EXE       0.040700
     43 H9           6.8200     0.7600     2.3900 hc         1 EXE       0.040700
     44 H10          5.7760     0.3160     3.7420 hc         1 EXE       0.040700
     45 H11          6.2580    -0.9150     2.5630 hc         1 EXE       0.040700
     46 H12          3.4650     2.2400     1.4420 hc         1 EXE       0.040700
     47 H13          4.2420     2.2360     3.0300 hc         1 EXE       0.040700
     48 H14          5.1980     2.5950     1.5850 hc         1 EXE       0.040700
     49 H15          3.8510    -2.3380    -0.9920 h1         1 EXE       0.070200
     50 H16          2.8230    -2.2960     0.4590 h1         1 EXE       0.070200
     51 H17          1.3600    -3.5550    -0.9480 h1         1 EXE       0.070700
     52 H18          2.6340    -3.5920    -2.8230 ho         1 EXE       0.458000
     53 H19         -0.2270    -1.6220    -1.9410 h1         1 EXE       0.086700
     54 H20          1.5990    -0.0250    -2.5130 h1         1 EXE       0.087700
     55 H21         -0.3700     0.9060    -2.6600 hn         1 EXE       0.314500
     56 H22         -0.8830     3.2100    -0.8520 h1         1 EXE       0.066700
     57 H23         -1.5220     2.9690    -2.4860 h1         1 EXE       0.066700
     58 H24         -1.9600     2.1060     1.1080 ha         1 EXE       0.117500
     59 H25         -4.0480     1.1630     2.0540 ha         1 EXE       0.118500
     60 H26         -3.5220     1.5510    -2.8840 ha         1 EXE       0.117500
     61 H27         -5.6110     0.6200    -1.9370 ha         1 EXE       0.118500
     62 H28         -9.0490    -0.4070     2.5340 h5         1 EXE       0.052100
     63 H29         -6.4340    -1.6990    -1.6710 hc         1 EXE       0.051367
     64 H30         -5.0170    -1.9330    -0.6270 hc         1 EXE       0.051367
     65 H31         -6.4320    -2.9750    -0.4430 hc         1 EXE       0.051367
@<TRIPOS>BOND
     1     1     2 1   
     2     1    35 1   
     3     1    36 1   
     4     1    37 1   
     5     2     3 2   
     6     2     4 1   
     7     4     5 1   
     8     4    38 1   
     9     5     6 1   
    10     5    10 1   
    11     5    39 1   
    12     6     7 1   
    13     6     8 1   
    14     6     9 1   
    15     7    40 1   
    16     7    41 1   
    17     7    42 1   
    18     8    43 1   
    19     8    44 1   
    20     8    45 1   
    21     9    46 1   
    22     9    47 1   
    23     9    48 1   
    24    10    11 2   
    25    10    12 1   
    26    12    13 1   
    27    12    18 1   
    28    13    14 1   
    29    13    49 1   
    30    13    50 1   
    31    14    15 1   
    32    14    16 1   
    33    14    51 1   
    34    15    52 1   
    35    16    17 1   
    36    16    18 1   
    37    16    53 1   
    38    18    19 1   
    39    18    54 1   
    40    19    20 2   
    41    19    21 1   
    42    21    22 1   
    43    21    55 1   
    44    22    23 1   
    45    22    56 1   
    46    22    57 1   
    47    23    24 ar  
    48    23    26 ar  
    49    24    25 ar  
    50    24    58 1   
    51    25    28 ar  
    52    25    59 1   
    53    26    27 ar  
    54    26    60 1   
    55    27    28 ar  
    56    27    61 1   
    57    28    29 1   
    58    29    30 1   
    59    29    33 2   
    60    30    31 1   
    61    31    32 2   
    62    31    62 1   
    63    32    33 1   
    64    33    34 1   
    65    34    63 1   
    66    34    64 1   
    67    34    65 1   
@<TRIPOS>SUBSTRUCTURE
     1 EXE         1 TEMP              0 ****  ****    0 ROOT
