@<TRIPOS>MOLECULE
EXF
   56    58     1     0     0
SMALL
abcg2


@<TRIPOS>ATOM
      1 C13         16.3800   -10.6920    12.8320 c3         1 EXF      -0.125100
      2 C18         16.6700    -5.0030     4.6850 c3         1 EXF      -0.111100
      3 C17         17.3740    -4.5500     7.0600 c3         1 EXF      -0.111100
      4 C16         17.5170    -5.4790     5.8630 c3         1 EXF       0.234500
      5 C15         17.5080    -7.9520     5.6350 ca         1 EXF       0.448000
      6 C19         18.3710    -7.9190     4.5250 ca         1 EXF      -0.292000
      7 C11         16.2650   -10.7270    10.3280 c3         1 EXF       0.189300
      8 C12         15.5210   -11.0620    11.6210 c3         1 EXF       0.160000
      9 C9          16.1720    -9.3820     7.2510 c          1 EXF       0.643700
     10 C10         15.4400   -10.8760     9.0580 c3         1 EXF       0.076000
     11 F1          16.7270    -9.4120    10.3790 f          1 EXF      -0.251000
     12 C14         15.2200   -12.5610    11.6560 c3         1 EXF      -0.125100
     13 O           14.3220   -10.3090    11.6100 oh         1 EXF      -0.645000
     14 C8          17.0540    -9.2320     6.0680 ca         1 EXF      -0.337600
     15 C7          17.4420   -10.3290     5.3120 ca         1 EXF       0.434900
     16 N4          18.2280   -10.2970     4.2520 nb         1 EXF      -0.782000
     17 C6          18.6970    -9.1000     3.8860 ca         1 EXF       0.642900
     18 N3          19.5300    -9.1880     2.7810 nu         1 EXF      -0.895800
     19 C5          20.2200    -8.2250     2.1160 cc         1 EXF       0.638900
     20 C           21.0120    -8.6390     0.9910 cc         1 EXF       0.021000
     21 F           21.0270    -9.9330     0.6570 f          1 EXF      -0.159000
     22 N2          20.1790    -6.9700     2.4680 nd         1 EXF      -0.722000
     23 C4          20.8890    -6.0740     1.7650 cd         1 EXF       0.407500
     24 N           21.6570    -6.4490     0.6840 na         1 EXF       0.098900
     25 C1          21.7240    -7.7430     0.2840 cd         1 EXF      -0.051000
     26 C3          21.0570    -4.7040     1.8800 cc         1 EXF      -0.385600
     27 C2          21.9280    -4.3770     0.8360 cc         1 EXF       0.390500
     28 N1          22.2930    -5.4250     0.1110 nd         1 EXF      -0.573100
     29 H1          15.8830   -11.0050    13.7520 hc         1 EXF       0.045867
     30 H2          17.3480   -11.1930    12.8000 hc         1 EXF       0.045867
     31 H3          16.5530    -9.6180    12.8930 hc         1 EXF       0.045867
     32 H4          17.0010    -4.0200     4.3480 hc         1 EXF       0.045200
     33 H5          16.7350    -5.6870     3.8380 hc         1 EXF       0.045200
     34 H6          15.6210    -4.9270     4.9750 hc         1 EXF       0.045200
     35 H7          18.0080    -4.8690     7.8870 hc         1 EXF       0.045200
     36 H8          17.6600    -3.5350     6.7850 hc         1 EXF       0.045200
     37 H9          16.3410    -4.5210     7.4120 hc         1 EXF       0.045200
     38 H10         18.5700    -5.4760     5.5670 h1         1 EXF       0.062700
     39 H11         18.7680    -6.9900     4.1570 ha         1 EXF       0.164000
     40 H12         17.1480   -11.3730    10.2700 h1         1 EXF       0.044700
     41 H13         16.9340   -11.2320     7.6280 hn         1 EXF       0.311500
     42 H14         14.5720   -10.2210     9.0830 h1         1 EXF       0.077700
     43 H15         15.0770   -11.9000     8.9740 h1         1 EXF       0.077700
     44 H16         14.7380   -12.8220    12.6000 hc         1 EXF       0.045867
     45 H17         14.5530   -12.8680    10.8500 hc         1 EXF       0.045867
     46 H18         16.1320   -13.1550    11.5850 hc         1 EXF       0.045867
     47 H19         13.8220   -10.5310    12.4020 ho         1 EXF       0.445000
     48 H20         17.0650   -11.3150     5.5660 h4         1 EXF       0.010100
     49 H21         16.4290    -6.9210     6.9650 hn         1 EXF       0.529000
     50 H22         19.6190   -10.1340     2.4400 hn         1 EXF       0.528000
     51 H23         22.3370    -7.9880    -0.5720 h4         1 EXF       0.179000
     52 H24         20.6150    -4.0510     2.6110 ha         1 EXF       0.227000
     53 H25         22.3110    -3.3990     0.5830 h4         1 EXF       0.048800
     54 N5          16.2200   -10.5690     7.8830 ns         1 EXF      -0.498900
     55 N6          17.1640    -6.8250     6.2780 nu         1 EXF      -0.948200
     56 O1          15.4290    -8.4730     7.6210 o          1 EXF      -0.626100
@<TRIPOS>BOND
     1     1     8 1   
     2     1    29 1   
     3     1    30 1   
     4     1    31 1   
     5     2     4 1   
     6     2    32 1   
     7     2    33 1   
     8     2    34 1   
     9     3     4 1   
    10     3    35 1   
    11     3    36 1   
    12     3    37 1   
    13     4    38 1   
    14     4    55 1   
    15     5     6 ar  
    16     5    14 ar  
    17     5    55 1   
    18     6    17 ar  
    19     6    39 1   
    20     7     8 1   
    21     7    10 1   
    22     7    11 1   
    23     7    40 1   
    24     8    12 1   
    25     8    13 1   
    26     9    14 1   
    27     9    54 1   
    28     9    56 2   
    29    10    42 1   
    30    10    43 1   
    31    10    54 1   
    32    12    44 1   
    33    12    45 1   
    34    12    46 1   
    35    13    47 1   
    36    14    15 ar  
    37    15    16 ar  
    38    15    48 1   
    39    16    17 ar  
    40    17    18 1   
    41    18    19 1   
    42    18    50 1   
    43    19    20 1   
    44    19    22 2   
    45    20    21 1   
    46    20    25 2   
    47    22    23 1   
    48    23    24 1   
    49    23    26 2   
    50    24    25 1   
    51    24    28 1   
    52    25    51 1   
    53    26    27 1   
    54    26    52 1   
    55    27    28 2   
    56    27    53 1   
    57    41    54 1   
    58    49    55 1   
@<TRIPOS>SUBSTRUCTURE
     1 EXF         1 TEMP              0 ****  ****    0 ROOT
