@<TRIPOS>MOLECULE
EXF
   56    58     1     0     0
SMALL
No Charge or Current Charge


@<TRIPOS>ATOM
      1 C13         16.6820   -11.6470    12.8120 c3         1 EXF      -0.125100
      2 C18         15.5700    -5.4390     4.8520 c3         1 EXF      -0.111100
      3 C17         16.5970    -4.0420     6.7280 c3         1 EXF      -0.111100
      4 C16         16.8390    -5.1370     5.6740 c3         1 EXF       0.234500
      5 C15         17.6980    -7.5350     5.7530 ca         1 EXF       0.448000
      6 C19         18.4540    -7.4870     4.5880 ca         1 EXF      -0.292000
      7 C11         16.4120   -10.9420    10.3510 c3         1 EXF       0.189300
      8 C12         15.6680   -11.3370    11.6820 c3         1 EXF       0.160000
      9 C9          16.5520    -8.9230     7.5620 c          1 EXF       0.643700
     10 C10         15.4750   -10.5490     9.1740 c3         1 EXF       0.076000
     11 F1          17.2900    -9.9280    10.5820 f          1 EXF      -0.251000
     12 C14         14.7390   -12.5600    11.4780 c3         1 EXF      -0.125100
     13 O           14.8460   -10.2500    12.1310 oh         1 EXF      -0.645000
     14 C8          17.3540    -8.7800     6.2990 ca         1 EXF      -0.337600
     15 C7          17.7890    -9.9200     5.6090 ca         1 EXF       0.434900
     16 N4          18.5150    -9.8750     4.4770 nb         1 EXF      -0.782000
     17 C6          18.8440    -8.6830     4.0080 ca         1 EXF       0.642900
     18 N3          19.5430    -8.8400     2.8590 nu         1 EXF      -0.895800
     19 C5          20.3780    -8.0790     2.0980 cc         1 EXF       0.638900
     20 C           20.9150    -8.7240     0.8930 cc         1 EXF       0.021000
     21 F           20.5570    -9.9920     0.6100 f          1 EXF      -0.159000
     22 N2          20.6340    -6.8540     2.5320 nd         1 EXF      -0.722000
     23 C4          21.4940    -6.2830     1.6270 cd         1 EXF       0.407500
     24 N           22.0610    -6.7700     0.4640 na         1 EXF       0.098900
     25 C1          21.7870    -8.0630     0.0340 cd         1 EXF      -0.051000
     26 C3          21.9720    -5.0300     1.7430 cc         1 EXF      -0.385600
     27 C2          22.8140    -4.8480     0.6150 cc         1 EXF       0.390500
     28 N1          22.8980    -5.8990    -0.2020 nd         1 EXF      -0.573100
     29 H1          16.1690   -11.9500    13.7340 hc         1 EXF       0.045867
     30 H2          17.3520   -12.4630    12.5160 hc         1 EXF       0.045867
     31 H3          17.2980   -10.7710    13.0470 hc         1 EXF       0.045867
     32 H4          15.2120    -4.5310     4.3540 hc         1 EXF       0.045200
     33 H5          15.7750    -6.1880     4.0780 hc         1 EXF       0.045200
     34 H6          14.7660    -5.8180     5.4950 hc         1 EXF       0.045200
     35 H7          17.5170    -3.8340     7.2870 hc         1 EXF       0.045200
     36 H8          16.2760    -3.1110     6.2470 hc         1 EXF       0.045200
     37 H9          15.8200    -4.3450     7.4410 hc         1 EXF       0.045200
     38 H10         17.6180    -4.7720     4.9890 h1         1 EXF       0.062700
     39 H11         18.7250    -6.5410     4.1460 ha         1 EXF       0.164000
     40 H12         17.0040   -11.8080    10.0290 h1         1 EXF       0.044700
     41 H13         16.4880   -10.9580     7.3270 hn         1 EXF       0.311500
     42 H14         14.8420    -9.7050     9.4790 h1         1 EXF       0.077700
     43 H15         14.8090   -11.3900     8.9450 h1         1 EXF       0.077700
     44 H16         14.2930   -12.8790    12.4280 hc         1 EXF       0.045867
     45 H17         13.9170   -12.3320    10.7900 hc         1 EXF       0.045867
     46 H18         15.3010   -13.4100    11.0700 hc         1 EXF       0.045867
     47 H19         14.4890   -10.5010    13.0090 ho         1 EXF       0.445000
     48 H20         17.5620   -10.9250     5.9590 h4         1 EXF       0.010100
     49 H21         16.8280    -6.5480     7.2470 hn         1 EXF       0.529000
     50 H22         19.5380    -9.8100     2.5790 hn         1 EXF       0.528000
     51 H23         22.2370    -8.4420    -0.8740 h4         1 EXF       0.179000
     52 H24         21.7700    -4.3060     2.5210 ha         1 EXF       0.227000
     53 H25         23.3770    -3.9570     0.3660 h4         1 EXF       0.048800
     54 N5          16.2000   -10.2030     7.9360 ns         1 EXF      -0.498900
     55 N6          17.2980    -6.3510     6.3540 nu         1 EXF      -0.948200
     56 O1          16.2180    -7.9620     8.2420 o          1 EXF      -0.626100
@<TRIPOS>BOND
     1     1     8 1   
     2     1    29 1   
     3     1    30 1   
     4     1    31 1   
     5     2     4 1   
     6     2    32 1   
     7     2    33 1   
     8     2    34 1   
     9     3     4 1   
    10     3    35 1   
    11     3    36 1   
    12     3    37 1   
    13     4    38 1   
    14     4    55 1   
    15     5     6 ar  
    16     5    14 ar  
    17     5    55 1   
    18     6    17 ar  
    19     6    39 1   
    20     7     8 1   
    21     7    10 1   
    22     7    11 1   
    23     7    40 1   
    24     8    12 1   
    25     8    13 1   
    26     9    14 1   
    27     9    54 1   
    28     9    56 2   
    29    10    42 1   
    30    10    43 1   
    31    10    54 1   
    32    12    44 1   
    33    12    45 1   
    34    12    46 1   
    35    13    47 1   
    36    14    15 ar  
    37    15    16 ar  
    38    15    48 1   
    39    16    17 ar  
    40    17    18 1   
    41    18    19 1   
    42    18    50 1   
    43    19    20 1   
    44    19    22 2   
    45    20    21 1   
    46    20    25 2   
    47    22    23 1   
    48    23    24 1   
    49    23    26 2   
    50    24    25 1   
    51    24    28 1   
    52    25    51 1   
    53    26    27 1   
    54    26    52 1   
    55    27    28 2   
    56    27    53 1   
    57    41    54 1   
    58    49    55 1   
@<TRIPOS>SUBSTRUCTURE
     1 EXF         1 TEMP              0 ****  ****    0 ROOT
