@<TRIPOS>MOLECULE
EXG
   27    29     1     0     0
SMALL
abcg2


@<TRIPOS>ATOM
      1 C1          -1.8290    -0.1150     0.6810 ca         1 EXG      -0.121300
      2 C2          -2.4460     1.0580     1.0960 ca         1 EXG      -0.092000
      3 C3          -3.3880     1.6840     0.2870 ca         1 EXG      -0.108500
      4 C11          1.2960     1.2480     0.2960 ca         1 EXG      -0.063000
      5 C12          1.2830    -0.1360     0.3530 ca         1 EXG      -0.129200
      6 C10          2.3900     1.8010    -0.3490 ca         1 EXG      -0.158000
      7 C9           3.3840     0.9750    -0.8880 ca         1 EXG       0.322900
      8 N2           3.3730    -0.3480    -0.8340 nb         1 EXG      -0.604000
      9 C8           2.3280    -0.8850    -0.2180 ca         1 EXG       0.462000
     10 N1           2.0990    -2.2240    -0.0380 nc         1 EXG      -0.632700
     11 C7           0.9700    -2.2760     0.6110 cd         1 EXG       0.426700
     12 N            0.4260    -1.0620     0.8800 na         1 EXG      -0.179600
     13 C           -0.8200    -0.7980     1.5690 c3         1 EXG       0.131900
     14 C6          -2.1620    -0.6570    -0.5580 ca         1 EXG      -0.092000
     15 C5          -3.0980    -0.0320    -1.3680 ca         1 EXG      -0.108500
     16 C4          -3.7140     1.1410    -0.9470 ca         1 EXG      -0.097000
     17 H1          -2.1910     1.4910     2.0560 ha         1 EXG       0.115500
     18 H2          -3.8600     2.5990     0.6200 ha         1 EXG       0.118000
     19 H4           2.4870     2.8730    -0.4430 ha         1 EXG       0.122000
     20 H5           4.2320     1.4290    -1.3890 h4         1 EXG       0.021100
     21 H6           0.4750    -3.1840     0.9270 h5         1 EXG       0.062800
     22 H7          -0.6160    -0.1930     2.4540 h1         1 EXG       0.064700
     23 H8          -1.2020    -1.7580     1.9180 h1         1 EXG       0.064700
     24 H9          -1.6890    -1.5720    -0.8950 ha         1 EXG       0.115500
     25 H10         -3.3490    -0.4610    -2.3300 ha         1 EXG       0.118000
     26 H11         -4.4440     1.6280    -1.5800 ha         1 EXG       0.117000
     27 H3           0.5140     1.8620     0.7220 ha         1 EXG       0.125000
@<TRIPOS>BOND
     1     1     2 ar  
     2     1    13 1   
     3     1    14 ar  
     4     2     3 ar  
     5     2    17 1   
     6     3    16 ar  
     7     3    18 1   
     8     4     5 ar  
     9     4     6 ar  
    10     4    27 1   
    11     5     9 ar  
    12     5    12 1   
    13     6     7 ar  
    14     6    19 1   
    15     7     8 ar  
    16     7    20 1   
    17     8     9 ar  
    18     9    10 1   
    19    10    11 2   
    20    11    12 1   
    21    11    21 1   
    22    12    13 1   
    23    13    22 1   
    24    13    23 1   
    25    14    15 ar  
    26    14    24 1   
    27    15    16 ar  
    28    15    25 1   
    29    16    26 1   
@<TRIPOS>SUBSTRUCTURE
     1 EXG         1 TEMP              0 ****  ****    0 ROOT
