@<TRIPOS>MOLECULE
EXG
   27    29     1     0     0
SMALL
No Charge or Current Charge


@<TRIPOS>ATOM
      1 C1          -1.8320    -0.0630     0.6950 ca         1 EXG      -0.121300
      2 C2          -2.5820     1.0300     1.1730 ca         1 EXG      -0.092000
      3 C3          -3.5410     1.6480     0.3520 ca         1 EXG      -0.108500
      4 C11          1.3030     1.1630     0.2550 ca         1 EXG      -0.063000
      5 C12          1.3460    -0.2360     0.3350 ca         1 EXG      -0.129200
      6 C10          2.3790     1.7710    -0.4150 ca         1 EXG      -0.158000
      7 C9           3.4030     0.9580    -0.9480 ca         1 EXG       0.322900
      8 N2           3.4070    -0.3950    -0.8510 nb         1 EXG      -0.604000
      9 C8           2.3750    -0.9690    -0.2100 ca         1 EXG       0.462000
     10 N1           2.1770    -2.3210     0.0030 nc         1 EXG      -0.632700
     11 C7           1.0110    -2.3610     0.6810 cd         1 EXG       0.426700
     12 N            0.4550    -1.0970     0.9110 na         1 EXG      -0.179600
     13 C           -0.7920    -0.7240     1.5990 c3         1 EXG       0.131900
     14 C6          -2.0620    -0.5350    -0.6150 ca         1 EXG      -0.092000
     15 C5          -3.0210     0.0850    -1.4350 ca         1 EXG      -0.108500
     16 C4          -3.7600     1.1770    -0.9530 ca         1 EXG      -0.097000
     17 H1          -2.4220     1.4040     2.1820 ha         1 EXG       0.115500
     18 H2          -4.1140     2.4930     0.7280 ha         1 EXG       0.118000
     19 H4           2.4280     2.8510    -0.5230 ha         1 EXG       0.122000
     20 H5           4.2470     1.4070    -1.4710 h4         1 EXG       0.021100
     21 H6           0.5150    -3.2590     1.0310 h5         1 EXG       0.062800
     22 H7          -0.5370    -0.0470     2.4240 h1         1 EXG       0.064700
     23 H8          -1.2310    -1.6280     2.0410 h1         1 EXG       0.064700
     24 H9          -1.5000    -1.3820    -1.0020 ha         1 EXG       0.115500
     25 H10         -3.1910    -0.2830    -2.4450 ha         1 EXG       0.118000
     26 H11         -4.5020     1.6560    -1.5880 ha         1 EXG       0.117000
     27 H3           0.4900     1.7470     0.6810 ha         1 EXG       0.125000
@<TRIPOS>BOND
     1     1     2 ar  
     2     1    13 1   
     3     1    14 ar  
     4     2     3 ar  
     5     2    17 1   
     6     3    16 ar  
     7     3    18 1   
     8     4     5 ar  
     9     4     6 ar  
    10     4    27 1   
    11     5     9 ar  
    12     5    12 1   
    13     6     7 ar  
    14     6    19 1   
    15     7     8 ar  
    16     7    20 1   
    17     8     9 ar  
    18     9    10 1   
    19    10    11 2   
    20    11    12 1   
    21    11    21 1   
    22    12    13 1   
    23    13    22 1   
    24    13    23 1   
    25    14    15 ar  
    26    14    24 1   
    27    15    16 ar  
    28    15    25 1   
    29    16    26 1   
@<TRIPOS>SUBSTRUCTURE
     1 EXG         1 TEMP              0 ****  ****    0 ROOT
