@<TRIPOS>MOLECULE
EXH
   65    67     1     0     0
SMALL
No Charge or Current Charge


@<TRIPOS>ATOM
      1 CAA          7.0950     1.8890    -3.1180 c3         1 EXH      -0.179100
      2 CAV          6.7550     0.9040    -2.0080 c          1 EXH       0.605100
      3 OAF          7.4230    -0.0950    -1.7890 o          1 EXH      -0.612100
      4 N            5.6350     1.2260    -1.2780 ns         1 EXH      -0.499900
      5 CA           5.0930     0.4410    -0.1390 c3         1 EXH       0.049700
      6 CB           5.5060     1.0730     1.2500 c3         1 EXH      -0.047000
      7 CG1          4.8740     2.4830     1.4270 c3         1 EXH      -0.089100
      8 CAE          5.0510     0.1830     2.4390 c3         1 EXH      -0.089100
      9 CG2          7.0520     1.2150     1.3410 c3         1 EXH      -0.089100
     10 C            3.5440     0.2870    -0.3380 c          1 EXH       0.605100
     11 O            2.8870     1.1760    -0.8740 o          1 EXH      -0.618100
     12 NBG          2.8840    -0.8700     0.1380 n          1 EXH      -0.391800
     13 CAQ          3.5490    -2.1770     0.3500 c5         1 EXH       0.073000
     14 CBC          2.4220    -2.9860     1.0510 c5         1 EXH       0.124300
     15 OAI          2.6510    -4.4040     1.0170 oh         1 EXH      -0.628000
     16 CBD          1.1730    -2.5350     0.2260 c5         1 EXH       0.197300
     17 FAJ          1.1520    -3.1350    -1.0410 f          1 EXH      -0.246000
     18 CBF          1.3930    -0.9990     0.0780 c5         1 EXH      -0.007300
     19 CAW          0.6530    -0.2940     1.2480 c          1 EXH       0.600100
     20 OAG          1.1280     0.0750     2.3140 o          1 EXH      -0.603100
     21 NAS         -0.6700    -0.1100     0.9140 ns         1 EXH      -0.490900
     22 CAP         -1.6500     0.5290     1.7870 c3         1 EXH       0.146300
     23 CAZ         -3.0320     0.5100     1.1550 ca         1 EXH      -0.109300
     24 CAL         -3.8980    -0.5780     1.3750 ca         1 EXH      -0.095500
     25 CAN         -5.1740    -0.5980     0.7860 ca         1 EXH      -0.098500
     26 CAK         -3.4560     1.5760     0.3400 ca         1 EXH      -0.095500
     27 CAM         -4.7320     1.5530    -0.2490 ca         1 EXH      -0.098500
     28 CBA         -5.5960     0.4610    -0.0380 ca         1 EXH       0.002000
     29 CBB         -6.9290     0.4290    -0.6360 cc         1 EXH      -0.191000
     30 SAU         -8.3970     0.1020     0.2330 ss         1 EXH      -0.025400
     31 CAO         -9.2270     0.2510    -1.2950 cc         1 EXH       0.414300
     32 NAR         -8.4720     0.4860    -2.3660 nd         1 EXH      -0.637000
     33 CAY         -7.1390     0.5780    -1.9930 cd         1 EXH       0.304300
     34 CAB         -6.1000     0.7990    -3.0610 c3         1 EXH      -0.122400
     35 H1           6.2240     2.0030    -3.7730 hc         1 EXH       0.061700
     36 H2           7.1950     2.8910    -2.6860 hc         1 EXH       0.061700
     37 H3           7.9900     1.5990    -3.6800 hc         1 EXH       0.061700
     38 H4           5.1290     2.0570    -1.5650 hn         1 EXH       0.328500
     39 H5           5.5240    -0.5650    -0.1960 h1         1 EXH       0.091700
     40 H6           3.7780     2.4310     1.4470 hc         1 EXH       0.040367
     41 H7           5.1970     2.9400     2.3710 hc         1 EXH       0.040367
     42 H8           5.1680     3.1590     0.6150 hc         1 EXH       0.040367
     43 H9           5.5230    -0.8050     2.3950 hc         1 EXH       0.040367
     44 H10          5.3350     0.6380     3.3960 hc         1 EXH       0.040367
     45 H11          3.9630     0.0520     2.4550 hc         1 EXH       0.040367
     46 H12          7.4370     1.9280     0.6030 hc         1 EXH       0.040367
     47 H13          7.3560     1.5760     2.3310 hc         1 EXH       0.040367
     48 H14          7.5440     0.2490     1.1710 hc         1 EXH       0.040367
     49 H15          3.8380    -2.6280    -0.6100 h1         1 EXH       0.069200
     50 H16          4.4400    -2.1090     0.9830 h1         1 EXH       0.069200
     51 H17          2.3140    -2.6470     2.0920 h1         1 EXH       0.066700
     52 H18          3.4090    -4.5950     1.6150 ho         1 EXH       0.453000
     53 H19          0.2300    -2.7860     0.7300 h1         1 EXH       0.083700
     54 H20          0.9910    -0.6260    -0.8730 h1         1 EXH       0.090700
     55 H21         -0.9770    -0.4270     0.0030 hn         1 EXH       0.323500
     56 H22         -1.6720     0.0010     2.7500 h1         1 EXH       0.063700
     57 H23         -1.3390     1.5660     1.9770 h1         1 EXH       0.063700
     58 H24         -3.5840    -1.4090     2.0030 ha         1 EXH       0.118500
     59 H25         -5.8340    -1.4440     0.9630 ha         1 EXH       0.121000
     60 H26         -2.7980     2.4240     0.1640 ha         1 EXH       0.118500
     61 H27         -5.0510     2.3920    -0.8630 ha         1 EXH       0.121000
     62 H28        -10.3040     0.1380    -1.3180 h5         1 EXH       0.054100
     63 H29         -5.8460     1.8610    -3.1450 hc         1 EXH       0.052033
     64 H30         -5.1810     0.2440    -2.8420 hc         1 EXH       0.052033
     65 H31         -6.4590     0.4640    -4.0410 hc         1 EXH       0.052033
@<TRIPOS>BOND
     1     1     2 1   
     2     1    35 1   
     3     1    36 1   
     4     1    37 1   
     5     2     3 2   
     6     2     4 1   
     7     4     5 1   
     8     4    38 1   
     9     5     6 1   
    10     5    10 1   
    11     5    39 1   
    12     6     7 1   
    13     6     8 1   
    14     6     9 1   
    15     7    40 1   
    16     7    41 1   
    17     7    42 1   
    18     8    43 1   
    19     8    44 1   
    20     8    45 1   
    21     9    46 1   
    22     9    47 1   
    23     9    48 1   
    24    10    11 2   
    25    10    12 1   
    26    12    13 1   
    27    12    18 1   
    28    13    14 1   
    29    13    49 1   
    30    13    50 1   
    31    14    15 1   
    32    14    16 1   
    33    14    51 1   
    34    15    52 1   
    35    16    17 1   
    36    16    18 1   
    37    16    53 1   
    38    18    19 1   
    39    18    54 1   
    40    19    20 2   
    41    19    21 1   
    42    21    22 1   
    43    21    55 1   
    44    22    23 1   
    45    22    56 1   
    46    22    57 1   
    47    23    24 ar  
    48    23    26 ar  
    49    24    25 ar  
    50    24    58 1   
    51    25    28 ar  
    52    25    59 1   
    53    26    27 ar  
    54    26    60 1   
    55    27    28 ar  
    56    27    61 1   
    57    28    29 1   
    58    29    30 1   
    59    29    33 2   
    60    30    31 1   
    61    31    32 2   
    62    31    62 1   
    63    32    33 1   
    64    33    34 1   
    65    34    63 1   
    66    34    64 1   
    67    34    65 1   
@<TRIPOS>SUBSTRUCTURE
     1 EXH         1 TEMP              0 ****  ****    0 ROOT
