@<TRIPOS>MOLECULE
EXH
   65    67     1     0     0
SMALL
abcg2


@<TRIPOS>ATOM
      1 CAA          6.5770     1.5020    -3.1930 c3         1 EXH      -0.179100
      2 CAV          6.3320     0.6280    -1.9900 c          1 EXH       0.605100
      3 OAF          6.9290    -0.4270    -1.8260 o          1 EXH      -0.612100
      4 N            5.4000     1.0910    -1.1350 ns         1 EXH      -0.499900
      5 CA           4.9640     0.3870     0.0460 c3         1 EXH       0.049700
      6 CB           5.3050     1.1600     1.3540 c3         1 EXH      -0.047000
      7 CG1          4.5780     2.5020     1.4520 c3         1 EXH      -0.089100
      8 CAE          4.9360     0.3020     2.5650 c3         1 EXH      -0.089100
      9 CG2          6.8150     1.4050     1.3750 c3         1 EXH      -0.089100
     10 C            3.4700     0.1210    -0.1130 c          1 EXH       0.605100
     11 O            2.7210     1.0080    -0.5020 o          1 EXH      -0.618100
     12 NBG          2.9890    -1.1010     0.1660 n          1 EXH      -0.391800
     13 CAQ          3.7030    -2.2990     0.5770 c5         1 EXH       0.073000
     14 CBC          2.5850    -3.1310     1.2120 c5         1 EXH       0.124300
     15 OAI          2.8250    -4.5020     1.2620 oh         1 EXH      -0.628000
     16 CBD          1.3920    -2.8120     0.3300 c5         1 EXH       0.197300
     17 FAJ          1.5050    -3.5270    -0.8570 f          1 EXH      -0.246000
     18 CBF          1.5610    -1.3250     0.0250 c5         1 EXH      -0.007300
     19 CAW          0.7740    -0.4710     1.0200 c          1 EXH       0.600100
     20 OAG          1.1530    -0.3230     2.1700 o          1 EXH      -0.603100
     21 NAS         -0.3730     0.0200     0.5370 ns         1 EXH      -0.490900
     22 CAP         -1.2850     0.8280     1.3180 c3         1 EXH       0.146300
     23 CAZ         -2.6890     0.6940     0.7960 ca         1 EXH      -0.109300
     24 CAL         -3.3200    -0.5480     0.7650 ca         1 EXH      -0.095500
     25 CAN         -4.6080    -0.6760     0.2770 ca         1 EXH      -0.098500
     26 CAK         -3.3840     1.8040     0.3320 ca         1 EXH      -0.095500
     27 CAM         -4.6800     1.6830    -0.1500 ca         1 EXH      -0.098500
     28 CBA         -5.3070     0.4400    -0.1940 ca         1 EXH       0.002000
     29 CBB         -6.6680     0.3070    -0.7140 cc         1 EXH      -0.191000
     30 SAU         -7.8460    -0.6500     0.1090 ss         1 EXH      -0.025400
     31 CAO         -8.9910    -0.2520    -1.0990 cc         1 EXH       0.414300
     32 NAR         -8.5470     0.5220    -2.0340 nd         1 EXH      -0.637000
     33 CAY         -7.2330     0.8510    -1.8380 cd         1 EXH       0.304300
     34 CAB         -6.5480     1.7150    -2.8430 c3         1 EXH      -0.122400
     35 H1           6.1250     1.0380    -4.0710 hc         1 EXH       0.061700
     36 H2           6.1670     2.5060    -3.0930 hc         1 EXH       0.061700
     37 H3           7.6470     1.5790    -3.3790 hc         1 EXH       0.061700
     38 H4           4.9260     1.9500    -1.3650 hn         1 EXH       0.328500
     39 H5           5.5240    -0.5480     0.0690 h1         1 EXH       0.091700
     40 H6           3.5040     2.3810     1.5870 hc         1 EXH       0.040367
     41 H7           4.9560     3.0530     2.3150 hc         1 EXH       0.040367
     42 H8           4.7380     3.1320     0.5750 hc         1 EXH       0.040367
     43 H9           5.4950    -0.6360     2.5720 hc         1 EXH       0.040367
     44 H10          5.1900     0.8310     3.4850 hc         1 EXH       0.040367
     45 H11          3.8700     0.0700     2.6080 hc         1 EXH       0.040367
     46 H12          7.1320     2.0790     0.5780 hc         1 EXH       0.040367
     47 H13          7.1020     1.8600     2.3240 hc         1 EXH       0.040367
     48 H14          7.3760     0.4740     1.2720 hc         1 EXH       0.040367
     49 H15          4.1410    -2.8200    -0.2790 h1         1 EXH       0.069200
     50 H16          4.4930    -2.0870     1.2920 h1         1 EXH       0.069200
     51 H17          2.3710    -2.7120     2.2020 h1         1 EXH       0.066700
     52 H18          3.4220    -4.6790     1.9950 ho         1 EXH       0.453000
     53 H19          0.4270    -3.0610     0.7750 h1         1 EXH       0.083700
     54 H20          1.2240    -1.1170    -0.9950 h1         1 EXH       0.090700
     55 H21         -0.5440    -0.0430    -0.4540 hn         1 EXH       0.323500
     56 H22         -1.2340     0.4970     2.3560 h1         1 EXH       0.063700
     57 H23         -0.9820     1.8790     1.3030 h1         1 EXH       0.063700
     58 H24         -2.7990    -1.4290     1.1200 ha         1 EXH       0.118500
     59 H25         -5.0690    -1.6550     0.2460 ha         1 EXH       0.121000
     60 H26         -2.9150     2.7800     0.3540 ha         1 EXH       0.118500
     61 H27         -5.2080     2.5690    -0.4780 ha         1 EXH       0.121000
     62 H28        -10.0020    -0.6340    -1.0580 h5         1 EXH       0.054100
     63 H29         -6.7780     2.7710    -2.6850 hc         1 EXH       0.052033
     64 H30         -5.4660     1.6050    -2.8030 hc         1 EXH       0.052033
     65 H31         -6.8800     1.4580    -3.8490 hc         1 EXH       0.052033
@<TRIPOS>BOND
     1     1     2 1   
     2     1    35 1   
     3     1    36 1   
     4     1    37 1   
     5     2     3 2   
     6     2     4 1   
     7     4     5 1   
     8     4    38 1   
     9     5     6 1   
    10     5    10 1   
    11     5    39 1   
    12     6     7 1   
    13     6     8 1   
    14     6     9 1   
    15     7    40 1   
    16     7    41 1   
    17     7    42 1   
    18     8    43 1   
    19     8    44 1   
    20     8    45 1   
    21     9    46 1   
    22     9    47 1   
    23     9    48 1   
    24    10    11 2   
    25    10    12 1   
    26    12    13 1   
    27    12    18 1   
    28    13    14 1   
    29    13    49 1   
    30    13    50 1   
    31    14    15 1   
    32    14    16 1   
    33    14    51 1   
    34    15    52 1   
    35    16    17 1   
    36    16    18 1   
    37    16    53 1   
    38    18    19 1   
    39    18    54 1   
    40    19    20 2   
    41    19    21 1   
    42    21    22 1   
    43    21    55 1   
    44    22    23 1   
    45    22    56 1   
    46    22    57 1   
    47    23    24 ar  
    48    23    26 ar  
    49    24    25 ar  
    50    24    58 1   
    51    25    28 ar  
    52    25    59 1   
    53    26    27 ar  
    54    26    60 1   
    55    27    28 ar  
    56    27    61 1   
    57    28    29 1   
    58    29    30 1   
    59    29    33 2   
    60    30    31 1   
    61    31    32 2   
    62    31    62 1   
    63    32    33 1   
    64    33    34 1   
    65    34    63 1   
    66    34    64 1   
    67    34    65 1   
@<TRIPOS>SUBSTRUCTURE
     1 EXH         1 TEMP              0 ****  ****    0 ROOT
