@<TRIPOS>MOLECULE
EXI
   47    48     1     0     0
SMALL
bcc


@<TRIPOS>ATOM
      1 N01         -3.6150    -1.1520    -0.0350 nb         1 EXI      -0.755000
      2 C02         -4.8530    -1.5430     0.2420 ca         1 EXI       0.664200
      3 N02         -5.0380    -2.8660     0.5270 nv         1 EXI      -0.944500
      4 C03         -5.9470    -0.6600     0.2030 ca         1 EXI      -0.314300
      5 C04         -5.7310     0.6590    -0.1340 ca         1 EXI       0.000700
      6 C05         -4.4210     1.0600    -0.4250 ca         1 EXI      -0.297300
      7 C06         -3.4040     0.1250    -0.3630 ca         1 EXI       0.462600
      8 C07         -6.8550     1.6490    -0.1820 c3         1 EXI      -0.053800
      9 C08         -1.9780     0.5100    -0.6360 c3         1 EXI      -0.124700
     10 C09         -1.1060     0.3920     0.6210 c3         1 EXI      -0.025100
     11 N11          2.0280     2.4290     0.3370 nb         1 EXI      -0.638000
     12 C12          0.7790     2.0590     0.5880 ca         1 EXI       0.347200
     13 C13          0.3200     0.7700     0.3480 ca         1 EXI      -0.153600
     14 C14          1.2120    -0.1510    -0.1820 ca         1 EXI      -0.177000
     15 C15          2.5360     0.2170    -0.4690 ca         1 EXI       0.076300
     16 C16          2.8770     1.5520    -0.1650 ca         1 EXI       0.331200
     17 C17          3.0500    -2.0540    -1.1500 c3         1 EXI       0.207100
     18 N17          3.4280    -0.6650    -1.0190 nh         1 EXI      -0.676000
     19 C18          4.8420    -0.3570    -1.0660 c3         1 EXI       0.219800
     20 C19          5.5470    -0.5340     0.2750 c3         1 EXI       0.120800
     21 N20          6.9500    -0.2010     0.1550 n7         1 EXI      -0.801200
     22 C21          7.6620    -0.3160     1.4120 c3         1 EXI       0.144100
     23 HN02        -4.2170    -3.3780     0.8050 hn         1 EXI       0.411800
     24 HN0A        -5.8690    -3.1180     1.0360 hn         1 EXI       0.411800
     25 H03         -6.9420    -1.0180     0.4390 ha         1 EXI       0.137000
     26 H05         -4.2030     2.0870    -0.6900 ha         1 EXI       0.141000
     27 H07         -6.7120     2.4300     0.5660 hc         1 EXI       0.046700
     28 H07A        -6.8990     2.1420    -1.1540 hc         1 EXI       0.046700
     29 H07B        -7.8190     1.1770     0.0040 hc         1 EXI       0.046700
     30 H08         -1.5700    -0.1380    -1.4170 hc         1 EXI       0.057200
     31 H08A        -1.9350     1.5320    -1.0160 hc         1 EXI       0.057200
     32 H09         -1.5150     1.0360     1.4040 hc         1 EXI       0.055700
     33 H09A        -1.1590    -0.6330     0.9940 hc         1 EXI       0.055700
     34 H12          0.1160     2.8110     1.0060 h4         1 EXI       0.017100
     35 H14          0.8630    -1.1600    -0.3640 ha         1 EXI       0.137000
     36 H16          3.8820     1.9210    -0.3340 h4         1 EXI       0.021100
     37 H17          2.1880    -2.1730    -1.8100 h1         1 EXI       0.036367
     38 H17A         3.8760    -2.6060    -1.5900 h1         1 EXI       0.036367
     39 H17B         2.8070    -2.5240    -0.1910 h1         1 EXI       0.036367
     40 H18          5.2980    -1.0160    -1.8090 h1         1 EXI       0.058700
     41 H18A         5.0010     0.6570    -1.4360 h1         1 EXI       0.058700
     42 H19          5.0950     0.1340     1.0160 h1         1 EXI       0.037700
     43 H19A         5.3760    -1.5590     0.6430 h1         1 EXI       0.037700
     44 HN20         7.3780    -0.8240    -0.5190 hn         1 EXI       0.347800
     45 H21          8.7230    -0.1170     1.2560 h1         1 EXI       0.031367
     46 H21A         7.2880     0.4270     2.1190 h1         1 EXI       0.031367
     47 H21B         7.5710    -1.3000     1.8930 h1         1 EXI       0.031367
@<TRIPOS>BOND
     1     1     2 ar  
     2     1     7 ar  
     3     2     3 1   
     4     2     4 ar  
     5     3    23 1   
     6     3    24 1   
     7     4     5 ar  
     8     4    25 1   
     9     5     6 ar  
    10     5     8 1   
    11     6     7 ar  
    12     6    26 1   
    13     7     9 1   
    14     8    27 1   
    15     8    28 1   
    16     8    29 1   
    17     9    10 1   
    18     9    30 1   
    19     9    31 1   
    20    10    13 1   
    21    10    32 1   
    22    10    33 1   
    23    11    12 ar  
    24    11    16 ar  
    25    12    13 ar  
    26    12    34 1   
    27    13    14 ar  
    28    14    15 ar  
    29    14    35 1   
    30    15    16 ar  
    31    15    18 1   
    32    16    36 1   
    33    17    18 1   
    34    17    37 1   
    35    17    38 1   
    36    17    39 1   
    37    18    19 1   
    38    19    20 1   
    39    19    40 1   
    40    19    41 1   
    41    20    21 1   
    42    20    42 1   
    43    20    43 1   
    44    21    22 1   
    45    21    44 1   
    46    22    45 1   
    47    22    46 1   
    48    22    47 1   
@<TRIPOS>SUBSTRUCTURE
     1 EXI         1 TEMP              0 ****  ****    0 ROOT
