@<TRIPOS>MOLECULE
EXI
   47    48     1     0     0
SMALL
No Charge or Current Charge


@<TRIPOS>ATOM
      1 N01         -3.8910    -1.2820    -0.6200 nb         1 EXI      -0.755000
      2 C02         -5.1810    -1.5470    -0.4790 ca         1 EXI       0.598900
      3 N02         -5.4200    -2.8540    -0.6040 nv         1 EXI      -1.054900
      4 C03         -6.1740    -0.6010    -0.2170 ca         1 EXI      -0.231000
      5 C04         -5.7980     0.7450    -0.0980 ca         1 EXI       0.000700
      6 C05         -4.4350     1.0480    -0.2460 ca         1 EXI      -0.214000
      7 C06         -3.5170     0.0120    -0.5070 ca         1 EXI       0.397300
      8 C07         -6.8220     1.8300     0.1890 c3         1 EXI      -0.053800
      9 C08         -2.0340     0.3100    -0.6630 c3         1 EXI      -0.124700
     10 C09         -1.3160     0.4620     0.6960 c3         1 EXI      -0.025100
     11 N11          1.9370     2.4440     0.5860 nb         1 EXI      -0.638000
     12 C12          0.6370     2.1010     0.7220 ca         1 EXI       0.281900
     13 C13          0.1630     0.7860     0.5340 ca         1 EXI      -0.088300
     14 C14          1.0820    -0.2260     0.1860 ca         1 EXI      -0.159000
     15 C15          2.4480     0.0960     0.0360 ca         1 EXI       0.280000
     16 C16          2.8120     1.4590     0.2500 ca         1 EXI       0.265900
     17 C17          3.1070    -2.3580    -0.1420 c3         1 EXI       0.207100
     18 N17          3.4020    -0.9150    -0.3170 nh         1 EXI      -0.814400
     19 C18          4.7420    -0.5680    -0.8650 c3         1 EXI       0.219800
     20 C19          5.8620    -0.4480     0.2080 c3         1 EXI       0.120800
     21 N20          7.1730    -0.0850    -0.3870 n7         1 EXI      -0.856400
     22 C21          8.2690     0.1030     0.5840 c3         1 EXI       0.144100
     23 HN02        -4.5960    -3.4400    -0.5530 hn         1 EXI       0.467000
     24 HN0A        -6.2660    -3.2200    -0.1820 hn         1 EXI       0.467000
     25 H03         -7.2110    -0.9050    -0.1110 ha         1 EXI       0.119000
     26 H05         -4.0850     2.0730    -0.1590 ha         1 EXI       0.123000
     27 H07         -6.9170     2.0020     1.2670 hc         1 EXI       0.046700
     28 H07A        -6.5360     2.7800    -0.2790 hc         1 EXI       0.046700
     29 H07B        -7.8110     1.5580    -0.1960 hc         1 EXI       0.046700
     30 H08         -1.5440    -0.4810    -1.2430 hc         1 EXI       0.057200
     31 H08A        -1.9050     1.2340    -1.2390 hc         1 EXI       0.057200
     32 H09         -1.8140     1.2460     1.2810 hc         1 EXI       0.055700
     33 H09A        -1.4340    -0.4660     1.2690 hc         1 EXI       0.055700
     34 H12         -0.0470     2.9060     0.9890 h4         1 EXI       0.017100
     35 H14          0.7250    -1.2390     0.0290 ha         1 EXI       0.119000
     36 H16          3.8480     1.7810     0.1570 h4         1 EXI       0.021100
     37 H17          2.4360    -2.7130    -0.9360 h1         1 EXI       0.036367
     38 H17A         4.0280    -2.9550    -0.1780 h1         1 EXI       0.036367
     39 H17B         2.6330    -2.5390     0.8320 h1         1 EXI       0.036367
     40 H18          5.0440    -1.3310    -1.5970 h1         1 EXI       0.058700
     41 H18A         4.6850     0.3750    -1.4250 h1         1 EXI       0.058700
     42 H19          5.5590     0.3110     0.9420 h1         1 EXI       0.037700
     43 H19A         5.9390    -1.4050     0.7410 h1         1 EXI       0.037700
     44 HN20         7.4510    -0.8300    -1.0410 hn         1 EXI       0.403000
     45 H21          9.1990     0.3800     0.0690 h1         1 EXI       0.031367
     46 H21A         8.0260     0.9000     1.2990 h1         1 EXI       0.031367
     47 H21B         8.4550    -0.8210     1.1500 h1         1 EXI       0.031367
@<TRIPOS>BOND
     1     1     2 ar  
     2     1     7 ar  
     3     2     3 1   
     4     2     4 ar  
     5     3    23 1   
     6     3    24 1   
     7     4     5 ar  
     8     4    25 1   
     9     5     6 ar  
    10     5     8 1   
    11     6     7 ar  
    12     6    26 1   
    13     7     9 1   
    14     8    27 1   
    15     8    28 1   
    16     8    29 1   
    17     9    10 1   
    18     9    30 1   
    19     9    31 1   
    20    10    13 1   
    21    10    32 1   
    22    10    33 1   
    23    11    12 ar  
    24    11    16 ar  
    25    12    13 ar  
    26    12    34 1   
    27    13    14 ar  
    28    14    15 ar  
    29    14    35 1   
    30    15    16 ar  
    31    15    18 1   
    32    16    36 1   
    33    17    18 1   
    34    17    37 1   
    35    17    38 1   
    36    17    39 1   
    37    18    19 1   
    38    19    20 1   
    39    19    40 1   
    40    19    41 1   
    41    20    21 1   
    42    20    42 1   
    43    20    43 1   
    44    21    22 1   
    45    21    44 1   
    46    22    45 1   
    47    22    46 1   
    48    22    47 1   
@<TRIPOS>SUBSTRUCTURE
     1 EXI         1 TEMP              0 ****  ****    0 ROOT
