@<TRIPOS>MOLECULE
EXJ
   36    38     1     0     0
SMALL
No Charge or Current Charge


@<TRIPOS>ATOM
      1 C1          -4.7160    -1.0910    -1.1000 c2         1 EXJ       0.473300
      2 C2          -5.2480     0.3240    -1.0050 c6         1 EXJ      -0.281700
      3 C3          -4.1090     1.3390    -0.9500 c          1 EXJ       0.558800
      4 C13          1.2190    -0.2210     1.2770 c3         1 EXJ       0.297800
      5 C14          1.4400    -0.4370     2.7920 c3         1 EXJ      -0.043300
      6 C15          0.3210    -1.1220     3.4460 c1         1 EXJ       0.297900
      7 C16          2.4880     0.2390     0.5560 ca         1 EXJ      -0.089300
      8 C17          2.9010    -0.4220    -0.6210 ca         1 EXJ      -0.083000
      9 C18          4.0590    -0.0090    -1.3010 ca         1 EXJ       0.119000
     10 C19          4.8160     1.0690    -0.8170 ca         1 EXJ      -0.094000
     11 C20          4.4110     1.7390     0.3490 ca         1 EXJ      -0.101000
     12 C21          3.2520     1.3290     1.0310 ca         1 EXJ      -0.102000
     13 N4          -2.9520     0.8880    -0.3040 n          1 EXJ      -0.090500
     14 C5          -2.7120    -0.4540    -0.1720 cc         1 EXJ       0.665500
     15 N6          -3.5640    -1.4380    -0.6130 ne         1 EXJ      -0.603700
     16 N7          -1.8190     1.5180     0.1140 nc         1 EXJ      -0.548800
     17 C8          -1.0450     0.5540     0.5290 cd         1 EXJ       0.799900
     18 N9          -1.5420    -0.7090     0.3760 nd         1 EXJ      -0.692000
     19 C10         -5.6800    -2.1450    -1.5830 c3         1 EXJ      -0.145400
     20 O11         -4.1830     2.4270    -1.5040 o          1 EXJ      -0.447000
     21 N12          0.1680     0.7780     1.0420 nu         1 EXJ      -0.921100
     22 Cl           4.5610    -0.8460    -2.7650 cl         1 EXJ      -0.196000
     23 N23         -0.5460    -1.6760     3.9930 n1         1 EXJ      -0.451000
     24 H1          -5.9500     0.5820    -1.8070 hc         1 EXJ       0.107200
     25 H2          -5.7730     0.3840    -0.0430 hc         1 EXJ       0.107200
     26 H3           0.9320    -1.1930     0.8470 h1         1 EXJ       0.102700
     27 H4           2.3410    -1.0420     2.9400 hc         1 EXJ       0.077700
     28 H5           1.6060     0.5200     3.2960 hc         1 EXJ       0.077700
     29 H6           2.3250    -1.2560    -1.0140 ha         1 EXJ       0.136000
     30 H7           5.7110     1.3850    -1.3470 ha         1 EXJ       0.132000
     31 H8           4.9940     2.5790     0.7230 ha         1 EXJ       0.121000
     32 H9           2.9500     1.8660     1.9270 ha         1 EXJ       0.114000
     33 H10         -5.2080    -3.1340    -1.6220 hc         1 EXJ       0.067367
     34 H11         -6.5470    -2.2140    -0.9170 hc         1 EXJ       0.067367
     35 H12         -6.0430    -1.9090    -2.5890 hc         1 EXJ       0.067367
     36 H13          0.4500     1.7450     0.9230 hn         1 EXJ       0.500000
@<TRIPOS>BOND
     1     1     2 1   
     2     1    15 2   
     3     1    19 1   
     4     2     3 1   
     5     2    24 1   
     6     2    25 1   
     7     3    13 1   
     8     3    20 2   
     9     4     5 1   
    10     4     7 1   
    11     4    21 1   
    12     4    26 1   
    13     5     6 1   
    14     5    27 1   
    15     5    28 1   
    16     6    23 3   
    17     7     8 ar  
    18     7    12 ar  
    19     8     9 ar  
    20     8    29 1   
    21     9    10 ar  
    22     9    22 1   
    23    10    11 ar  
    24    10    30 1   
    25    11    12 ar  
    26    11    31 1   
    27    12    32 1   
    28    13    14 1   
    29    13    16 1   
    30    14    15 1   
    31    14    18 2   
    32    16    17 2   
    33    17    18 1   
    34    17    21 1   
    35    19    33 1   
    36    19    34 1   
    37    19    35 1   
    38    21    36 1   
@<TRIPOS>SUBSTRUCTURE
     1 EXJ         1 TEMP              0 ****  ****    0 ROOT
