@<TRIPOS>MOLECULE
EXJ
   36    38     1     0     0
SMALL
abcg2


@<TRIPOS>ATOM
      1 C1          -4.7510    -1.1550    -0.9890 c2         1 EXJ       0.473300
      2 C2          -5.2890     0.2320    -0.8150 c6         1 EXJ      -0.281700
      3 C3          -4.3240     1.2930    -0.3620 c          1 EXJ       0.558800
      4 C13          1.2120    -0.1150     0.9220 c3         1 EXJ       0.297800
      5 C14          1.2860    -0.4040     2.4350 c3         1 EXJ      -0.043300
      6 C15         -0.0030    -0.7990     2.9780 c1         1 EXJ       0.297900
      7 C16          2.5820     0.2710     0.4100 ca         1 EXJ      -0.089300
      8 C17          3.2160    -0.5380    -0.5230 ca         1 EXJ      -0.083000
      9 C18          4.4730    -0.1870    -0.9930 ca         1 EXJ       0.119000
     10 C19          5.1150     0.9580    -0.5520 ca         1 EXJ      -0.094000
     11 C20          4.4750     1.7610     0.3820 ca         1 EXJ      -0.101000
     12 C21          3.2210     1.4210     0.8640 ca         1 EXJ      -0.102000
     13 N4          -3.0540     0.8010    -0.1720 n          1 EXJ      -0.090500
     14 C5          -2.6850    -0.4990    -0.3630 cc         1 EXJ       0.665500
     15 N6          -3.5330    -1.4850    -0.7760 ne         1 EXJ      -0.603700
     16 N7          -1.9850     1.5270     0.2450 nc         1 EXJ      -0.548800
     17 C8          -1.0380     0.6190     0.2720 cd         1 EXJ       0.799900
     18 N9          -1.4220    -0.6400    -0.0940 nd         1 EXJ      -0.692000
     19 C10         -5.7220    -2.1870    -1.4370 c3         1 EXJ      -0.145400
     20 O11         -4.6110     2.4470    -0.1800 o          1 EXJ      -0.447000
     21 N12          0.2410     0.9040     0.6050 nu         1 EXJ      -0.921100
     22 CL           5.2530    -1.2080    -2.1560 cl         1 EXJ      -0.196000
     23 N23         -1.0280    -1.0980     3.4060 n1         1 EXJ      -0.451000
     24 H1          -5.7350     0.5590    -1.7600 hc         1 EXJ       0.107200
     25 H2          -6.1220     0.2010    -0.1060 hc         1 EXJ       0.107200
     26 H3           0.9010    -1.0280     0.4170 h1         1 EXJ       0.102700
     27 H4           2.0050    -1.2020     2.6290 hc         1 EXJ       0.077700
     28 H5           1.6260     0.4780     2.9840 hc         1 EXJ       0.077700
     29 H6           2.7330    -1.4380    -0.8830 ha         1 EXJ       0.136000
     30 H7           6.0950     1.2200    -0.9270 ha         1 EXJ       0.132000
     31 H8           4.9660     2.6570     0.7380 ha         1 EXJ       0.121000
     32 H9           2.7510     2.0630     1.6000 ha         1 EXJ       0.114000
     33 H10         -5.2440    -3.1560    -1.5420 hc         1 EXJ       0.067367
     34 H11         -6.5430    -2.2660    -0.7210 hc         1 EXJ       0.067367
     35 H12         -6.1660    -1.8980    -2.3920 hc         1 EXJ       0.067367
     36 H13          0.4090     1.8390     0.9450 hn         1 EXJ       0.500000
@<TRIPOS>BOND
     1     1     2 1   
     2     1    15 2   
     3     1    19 1   
     4     2     3 1   
     5     2    24 1   
     6     2    25 1   
     7     3    13 1   
     8     3    20 2   
     9     4     5 1   
    10     4     7 1   
    11     4    21 1   
    12     4    26 1   
    13     5     6 1   
    14     5    27 1   
    15     5    28 1   
    16     6    23 3   
    17     7     8 ar  
    18     7    12 ar  
    19     8     9 ar  
    20     8    29 1   
    21     9    10 ar  
    22     9    22 1   
    23    10    11 ar  
    24    10    30 1   
    25    11    12 ar  
    26    11    31 1   
    27    12    32 1   
    28    13    14 1   
    29    13    16 1   
    30    14    15 1   
    31    14    18 2   
    32    16    17 2   
    33    17    18 1   
    34    17    21 1   
    35    19    33 1   
    36    19    34 1   
    37    19    35 1   
    38    21    36 1   
@<TRIPOS>SUBSTRUCTURE
     1 EXJ         1 TEMP              0 ****  ****    0 ROOT
