@<TRIPOS>MOLECULE
EXL
   29    30     1     0     0
SMALL
bcc


@<TRIPOS>ATOM
      1 C01         -9.0740   134.3620     8.5490 c3         1 EXL       0.045600
      2 C03         -9.6900   136.4030     9.8670 cc         1 EXL      -0.087100
      3 C04         -9.0680   137.4670    10.4590 cd         1 EXL      -0.105400
      4 C05         -9.7180   138.5770    11.2230 c3         1 EXL       0.019800
      5 C06         -9.9280   138.2640    12.7120 c3         1 EXL       0.016500
      6 C08        -10.9270   137.0870    12.8800 c          1 EXL       0.903600
      7 C11         -7.6680   137.2790    10.2190 ca         1 EXL      -0.084800
      8 C12         -6.5200   138.0070    10.5500 ca         1 EXL      -0.064000
      9 C13         -5.2870   137.5420    10.1340 ca         1 EXL      -0.186000
     10 C14         -5.1720   136.3530     9.3950 ca         1 EXL      -0.131000
     11 C15         -6.2860   135.6090     9.0570 ca         1 EXL      -0.157000
     12 C16         -7.5290   136.0840     9.4750 ca         1 EXL      -0.055200
     13 N02         -8.7760   135.5680     9.2780 na         1 EXL      -0.069400
     14 N07         -8.6400   138.1060    13.3700 n8         1 EXL      -0.889800
     15 O09        -12.0380   137.2410    12.3280 o          1 EXL      -0.844300
     16 O10        -10.5560   136.1040    13.5490 o          1 EXL      -0.844300
     17 H1         -10.1470   134.1900     8.5670 h1         1 EXL       0.037367
     18 H2          -8.7550   134.4400     7.5090 h1         1 EXL       0.037367
     19 H3          -8.5810   133.5000     8.9990 h1         1 EXL       0.037367
     20 H4         -10.7430   136.1700     9.8220 h4         1 EXL       0.181000
     21 H5          -9.1090   139.4810    11.1390 hc         1 EXL       0.035700
     22 H6         -10.6860   138.8120    10.7800 hc         1 EXL       0.035700
     23 H7         -10.4070   139.1490    13.1490 h1         1 EXL       0.036700
     24 H8          -6.5960   138.9230    11.1240 ha         1 EXL       0.140000
     25 H9          -4.3920   138.0990    10.3820 ha         1 EXL       0.111000
     26 H10         -4.1920   136.0130     9.0860 ha         1 EXL       0.107000
     27 H11         -6.1920   134.6940     8.4860 ha         1 EXL       0.114000
     28 H12         -8.8040   137.8930    14.3460 hn         1 EXL       0.329300
     29 H13         -8.1970   137.2690    13.0070 hn         1 EXL       0.329300
@<TRIPOS>BOND
     1     1    13 1   
     2     1    17 1   
     3     1    18 1   
     4     1    19 1   
     5     2     3 2   
     6     2    13 1   
     7     2    20 1   
     8     3     4 1   
     9     3     7 1   
    10     4     5 1   
    11     4    21 1   
    12     4    22 1   
    13     5     6 1   
    14     5    14 1   
    15     5    23 1   
    16     6    15 1   
    17     6    16 1   
    18     7     8 ar  
    19     7    12 ar  
    20     8     9 ar  
    21     8    24 1   
    22     9    10 ar  
    23     9    25 1   
    24    10    11 ar  
    25    10    26 1   
    26    11    12 ar  
    27    11    27 1   
    28    12    13 1   
    29    14    28 1   
    30    14    29 1   
@<TRIPOS>SUBSTRUCTURE
     1 EXL         1 TEMP              0 ****  ****    0 ROOT
