@<TRIPOS>MOLECULE
EXL
   29    30     1     0     0
SMALL
No Charge or Current Charge


@<TRIPOS>ATOM
      1 C01         -9.0450   134.3320     8.4680 c3         1 EXL       0.074900
      2 C03         -9.7980   136.3870     9.8350 cc         1 EXL      -0.137100
      3 C04         -9.0840   137.4180    10.4390 cd         1 EXL      -0.105400
      4 C05         -9.7030   138.5720    11.1960 c3         1 EXL       0.019800
      5 C06         -9.9220   138.2970    12.7100 c3         1 EXL       0.016500
      6 C08        -10.9200   137.0810    12.9190 c          1 EXL       0.693000
      7 C11         -7.6680   137.2270    10.1960 ca         1 EXL      -0.084800
      8 C12         -6.5490   137.9800    10.5780 ca         1 EXL      -0.046000
      9 C13         -5.2780   137.5180    10.1740 ca         1 EXL      -0.168000
     10 C14         -5.1550   136.3330     9.4090 ca         1 EXL      -0.113000
     11 C15         -6.3030   135.5980     9.0410 ca         1 EXL      -0.139000
     12 C16         -7.5540   136.0810     9.4570 ca         1 EXL      -0.055200
     13 N02         -8.8230   135.5670     9.2370 na         1 EXL      -0.098700
     14 N07         -8.6040   138.2340    13.4470 n8         1 EXL      -1.000200
     15 O09        -12.0980   137.2440    12.6310 o          1 EXL      -0.739000
     16 O10        -10.5030   136.0610    13.4550 o          1 EXL      -0.739000
     17 H1         -10.1180   134.1120     8.4210 h1         1 EXL       0.037367
     18 H2          -8.6570   134.4580     7.4500 h1         1 EXL       0.037367
     19 H3          -8.5260   133.4970     8.9550 h1         1 EXL       0.037367
     20 H4         -10.8630   136.1830     9.7870 h4         1 EXL       0.231000
     21 H5          -9.0850   139.4710    11.0800 hc         1 EXL       0.035700
     22 H6         -10.6700   138.8240    10.7440 hc         1 EXL       0.035700
     23 H7         -10.4480   139.1720    13.1160 h1         1 EXL       0.036700
     24 H8          -6.6550   138.8890    11.1660 ha         1 EXL       0.122000
     25 H9          -4.3870   138.0770    10.4520 ha         1 EXL       0.093000
     26 H10         -4.1710   135.9860     9.1030 ha         1 EXL       0.089000
     27 H11         -6.2140   134.6880     8.4540 ha         1 EXL       0.096000
     28 H12         -8.7900   137.9790    14.4240 hn         1 EXL       0.384500
     29 H13         -8.0900   137.4180    13.0940 hn         1 EXL       0.384500
@<TRIPOS>BOND
     1     1    13 1   
     2     1    17 1   
     3     1    18 1   
     4     1    19 1   
     5     2     3 2   
     6     2    13 1   
     7     2    20 1   
     8     3     4 1   
     9     3     7 1   
    10     4     5 1   
    11     4    21 1   
    12     4    22 1   
    13     5     6 1   
    14     5    14 1   
    15     5    23 1   
    16     6    15 1   
    17     6    16 1   
    18     7     8 ar  
    19     7    12 ar  
    20     8     9 ar  
    21     8    24 1   
    22     9    10 ar  
    23     9    25 1   
    24    10    11 ar  
    25    10    26 1   
    26    11    12 ar  
    27    11    27 1   
    28    12    13 1   
    29    14    28 1   
    30    14    29 1   
@<TRIPOS>SUBSTRUCTURE
     1 EXL         1 TEMP              0 ****  ****    0 ROOT
