@<TRIPOS>MOLECULE
EXM
   46    49     1     0     0
SMALL
bcc


@<TRIPOS>ATOM
      1 C           -2.1410     3.0720    -0.7090 c2         1 EXM      -0.194000
      2 C1          -2.3610    -1.7380    -0.1560 c2         1 EXM      -0.101200
      3 O1          -5.2360    -0.5490     1.5580 o          1 EXM      -0.525100
      4 C2          -3.5220    -1.7650     0.4980 ce         1 EXM      -0.242200
      5 O2           4.9090    -1.2040     0.9100 o          1 EXM      -0.509100
      6 C3          -4.1640    -0.5350     0.9680 c          1 EXM       0.564500
      7 C4          -3.4470     0.7100     0.6980 ce         1 EXM      -0.240200
      8 C5          -2.2800     0.7410     0.0380 cf         1 EXM      -0.011200
      9 C6          -1.5540     2.0050    -0.1720 cf         1 EXM      -0.094200
     10 C7          -0.1180     1.9810     0.2700 c6         1 EXM      -0.034200
     11 C8           0.6220     0.7390    -0.2220 c6         1 EXM      -0.041700
     12 C9          -0.1640    -0.5430     0.1170 c6         1 EXM      -0.038700
     13 C10         -1.6040    -0.4950    -0.4940 c6         1 EXM       0.007400
     14 C11          0.6050    -1.8220    -0.2470 c6         1 EXM      -0.072400
     15 C12          2.0360    -1.8520     0.2980 c6         1 EXM      -0.051400
     16 C13          2.7800    -0.5860    -0.0870 c5         1 EXM      -0.154000
     17 C14          1.9970     0.6320     0.4120 c5         1 EXM      -0.062700
     18 C15          2.9900     1.7900     0.2980 c5         1 EXM      -0.067400
     19 C16          4.3060     1.1470     0.7590 c5         1 EXM      -0.190400
     20 C17          4.1200    -0.3530     0.5770 c          1 EXM       0.580100
     21 C18          3.0740    -0.5450    -1.5990 c3         1 EXM      -0.079100
     22 C19         -1.5800    -0.4030    -2.0370 c3         1 EXM      -0.076100
     23 H1          -3.1750     3.0540    -1.0280 ha         1 EXM       0.121000
     24 H2          -1.5950     3.9960    -0.8590 ha         1 EXM       0.121000
     25 H2A         -4.0330    -2.7020     0.6870 ha         1 EXM       0.150000
     26 H4          -3.8830     1.6250     1.0820 ha         1 EXM       0.152000
     27 H17          0.3880     2.8870    -0.0670 hc         1 EXM       0.052200
     28 H27         -0.0900     1.9900     1.3670 hc         1 EXM       0.052200
     29 H8           0.7380     0.8200    -1.3080 hc         1 EXM       0.057700
     30 H9          -0.3000    -0.5510     1.2080 hc         1 EXM       0.055700
     31 H111         0.0800    -2.6910     0.1530 hc         1 EXM       0.043200
     32 H211         0.6200    -1.9570    -1.3310 hc         1 EXM       0.043200
     33 H112         2.0050    -1.9340     1.3900 hc         1 EXM       0.053200
     34 H212         2.5460    -2.7450    -0.0700 hc         1 EXM       0.053200
     35 H14          1.8310     0.4710     1.4900 hc         1 EXM       0.050700
     36 H115         3.0630     2.1510    -0.7300 hc         1 EXM       0.050200
     37 H215         2.7100     2.6430     0.9160 hc         1 EXM       0.050200
     38 H116         5.1890     1.4960     0.2200 hc         1 EXM       0.073200
     39 H216         4.4930     1.3390     1.8190 hc         1 EXM       0.073200
     40 H118         2.1630    -0.5860    -2.1950 hc         1 EXM       0.041033
     41 H218         3.6090     0.3570    -1.9000 hc         1 EXM       0.041033
     42 H318         3.6880    -1.4000    -1.8820 hc         1 EXM       0.041033
     43 H119        -2.5980    -0.3930    -2.4250 hc         1 EXM       0.043033
     44 H219        -1.0880     0.5040    -2.3830 hc         1 EXM       0.043033
     45 H319        -1.0630    -1.2570    -2.4730 hc         1 EXM       0.043033
     46 H1A         -1.9450    -2.6710    -0.5200 ha         1 EXM       0.130000
@<TRIPOS>BOND
     1     1     9 2   
     2     1    23 1   
     3     1    24 1   
     4     2     4 2   
     5     2    13 1   
     6     2    46 1   
     7     3     6 2   
     8     4     6 1   
     9     4    25 1   
    10     5    20 2   
    11     6     7 1   
    12     7     8 2   
    13     7    26 1   
    14     8     9 1   
    15     8    13 1   
    16     9    10 1   
    17    10    11 1   
    18    10    27 1   
    19    10    28 1   
    20    11    12 1   
    21    11    17 1   
    22    11    29 1   
    23    12    13 1   
    24    12    14 1   
    25    12    30 1   
    26    13    22 1   
    27    14    15 1   
    28    14    31 1   
    29    14    32 1   
    30    15    16 1   
    31    15    33 1   
    32    15    34 1   
    33    16    17 1   
    34    16    20 1   
    35    16    21 1   
    36    17    18 1   
    37    17    35 1   
    38    18    19 1   
    39    18    36 1   
    40    18    37 1   
    41    19    20 1   
    42    19    38 1   
    43    19    39 1   
    44    21    40 1   
    45    21    41 1   
    46    21    42 1   
    47    22    43 1   
    48    22    44 1   
    49    22    45 1   
@<TRIPOS>SUBSTRUCTURE
     1 EXM         1 TEMP              0 ****  ****    0 ROOT
