@<TRIPOS>MOLECULE
EXM
   46    49     1     0     0
SMALL
No Charge or Current Charge


@<TRIPOS>ATOM
      1 C           -2.1650     3.1540    -0.5280 c2         1 EXM      -0.294000
      2 C1          -2.4190    -1.7990    -0.1230 c2         1 EXM      -0.151200
      3 O1          -5.4640    -0.5290     1.3160 o          1 EXM      -0.525100
      4 C2          -3.6480    -1.7790     0.4400 ce         1 EXM      -0.292200
      5 O2           4.7190    -1.0970     1.5040 o          1 EXM      -0.509100
      6 C3          -4.3440    -0.5310     0.8260 c          1 EXM       0.564500
      7 C4          -3.5750     0.7100     0.6020 ce         1 EXM      -0.290200
      8 C5          -2.3300     0.7550     0.0470 cf         1 EXM      -0.011200
      9 C6          -1.5930     2.0110    -0.0840 cf         1 EXM      -0.094200
     10 C7          -0.1210     1.9810     0.3490 c6         1 EXM      -0.034200
     11 C8           0.6340     0.7360    -0.1820 c6         1 EXM      -0.041700
     12 C9          -0.1630    -0.5840     0.1290 c6         1 EXM      -0.038700
     13 C10         -1.6240    -0.5320    -0.4690 c6         1 EXM       0.007400
     14 C11          0.6570    -1.8610    -0.2860 c6         1 EXM      -0.072400
     15 C12          2.1060    -1.8750     0.2840 c6         1 EXM      -0.051400
     16 C13          2.8790    -0.5750    -0.0820 c5         1 EXM      -0.154000
     17 C14          2.0550     0.6400     0.4390 c5         1 EXM      -0.062700
     18 C15          3.0410     1.8380     0.2740 c5         1 EXM      -0.067400
     19 C16          4.4290     1.1810     0.5910 c5         1 EXM      -0.190400
     20 C17          4.1840    -0.3360     0.7070 c          1 EXM       0.580100
     21 C18          3.1940    -0.5780    -1.6190 c3         1 EXM      -0.079100
     22 C19         -1.6500    -0.4430    -2.0290 c3         1 EXM      -0.076100
     23 H1          -3.2110     3.1830    -0.8330 ha         1 EXM       0.171000
     24 H2          -1.5980     4.0830    -0.6040 ha         1 EXM       0.171000
     25 H2A         -4.1950    -2.7010     0.6330 ha         1 EXM       0.200000
     26 H4          -4.0490     1.6260     0.9460 ha         1 EXM       0.202000
     27 H17          0.3880     2.8940     0.0100 hc         1 EXM       0.052200
     28 H27         -0.0850     1.9990     1.4470 hc         1 EXM       0.052200
     29 H8           0.7450     0.8500    -1.2670 hc         1 EXM       0.057700
     30 H9          -0.2810    -0.6370     1.2210 hc         1 EXM       0.055700
     31 H111         0.1570    -2.7660     0.0800 hc         1 EXM       0.043200
     32 H211         0.6910    -1.9610    -1.3780 hc         1 EXM       0.043200
     33 H112         2.0550    -1.9800     1.3770 hc         1 EXM       0.053200
     34 H212         2.6480    -2.7600    -0.0800 hc         1 EXM       0.053200
     35 H14          1.8680     0.5110     1.5140 hc         1 EXM       0.050700
     36 H115         3.0120     2.2490    -0.7420 hc         1 EXM       0.050200
     37 H215         2.8070     2.6610     0.9600 hc         1 EXM       0.050200
     38 H116         5.0940     1.3500    -0.2620 hc         1 EXM       0.073200
     39 H216         4.9210     1.5580     1.4950 hc         1 EXM       0.073200
     40 H118         2.2890    -0.6150    -2.2340 hc         1 EXM       0.041033
     41 H218         3.7520     0.3070    -1.9430 hc         1 EXM       0.041033
     42 H318         3.8030    -1.4500    -1.8880 hc         1 EXM       0.041033
     43 H119        -2.6830    -0.3990    -2.3950 hc         1 EXM       0.043033
     44 H219        -1.1450     0.4510    -2.4100 hc         1 EXM       0.043033
     45 H319        -1.1830    -1.3150    -2.5000 hc         1 EXM       0.043033
     46 H1A         -1.9790    -2.7540    -0.4120 ha         1 EXM       0.180000
@<TRIPOS>BOND
     1     1     9 2   
     2     1    23 1   
     3     1    24 1   
     4     2     4 2   
     5     2    13 1   
     6     2    46 1   
     7     3     6 2   
     8     4     6 1   
     9     4    25 1   
    10     5    20 2   
    11     6     7 1   
    12     7     8 2   
    13     7    26 1   
    14     8     9 1   
    15     8    13 1   
    16     9    10 1   
    17    10    11 1   
    18    10    27 1   
    19    10    28 1   
    20    11    12 1   
    21    11    17 1   
    22    11    29 1   
    23    12    13 1   
    24    12    14 1   
    25    12    30 1   
    26    13    22 1   
    27    14    15 1   
    28    14    31 1   
    29    14    32 1   
    30    15    16 1   
    31    15    33 1   
    32    15    34 1   
    33    16    17 1   
    34    16    20 1   
    35    16    21 1   
    36    17    18 1   
    37    17    35 1   
    38    18    19 1   
    39    18    36 1   
    40    18    37 1   
    41    19    20 1   
    42    19    38 1   
    43    19    39 1   
    44    21    40 1   
    45    21    41 1   
    46    21    42 1   
    47    22    43 1   
    48    22    44 1   
    49    22    45 1   
@<TRIPOS>SUBSTRUCTURE
     1 EXM         1 TEMP              0 ****  ****    0 ROOT
