@<TRIPOS>MOLECULE
EXN
   44    47     1     0     0
SMALL
No Charge or Current Charge


@<TRIPOS>ATOM
      1 O            5.0190     0.3690     0.2430 os         1 EXN      -0.242000
      2 N1          -0.1760     1.6380    -0.2630 na         1 EXN      -0.074600
      3 N2          -5.6440    -1.2720     0.7790 ny         1 EXN      -0.822000
      4 C1           0.5920    -1.8370    -0.2270 ca         1 EXN      -0.053000
      5 C2           1.9990    -1.8920    -0.1120 ca         1 EXN      -0.115000
      6 C3           2.7840    -0.7040    -0.0370 ca         1 EXN      -0.059500
      7 C4           2.1380     0.5570    -0.0790 ca         1 EXN      -0.114000
      8 C5           0.7440     0.5780    -0.1980 ca         1 EXN       0.000800
      9 C6          -0.0290    -0.5770    -0.2700 cp         1 EXN      -0.098000
     10 C7          -1.5080     1.2010    -0.3620 ca         1 EXN       0.038800
     11 C8          -1.4340    -0.1900    -0.3720 cp         1 EXN      -0.082000
     12 C9          -2.6100    -0.9570    -0.4610 ca         1 EXN      -0.013000
     13 C10         -3.8520    -0.2830    -0.5380 ca         1 EXN      -0.244300
     14 C11         -3.9020     1.1360    -0.5240 ca         1 EXN      -0.067000
     15 C12         -2.7190     1.8990    -0.4340 ca         1 EXN      -0.126000
     16 C14          0.2800     3.5970     1.2370 c3         1 EXN      -0.119100
     17 C15         -5.1320    -1.0790    -0.6290 c3         1 EXN       0.172900
     18 C16         -6.9520    -2.0580     0.9440 c3         1 EXN       0.071900
     19 C17          4.2470    -0.7590     0.0870 cc         1 EXN       0.152500
     20 C18          5.0260    -1.8840     0.0580 cd         1 EXN      -0.142000
     21 C19          6.3570    -1.4360     0.2080 cd         1 EXN      -0.185000
     22 C20          6.3240    -0.0690     0.3180 cc         1 EXN       0.145900
     23 H1          -4.8910    -1.7150     1.3470 hn         1 EXN       0.502000
     24 H2          -5.7350    -0.3370     1.2280 hn         1 EXN       0.502000
     25 H3           0.0020    -2.7490    -0.2790 ha         1 EXN       0.117000
     26 H4           2.4720    -2.8690    -0.0760 ha         1 EXN       0.129000
     27 H5           2.7050     1.4830    -0.0210 ha         1 EXN       0.141000
     28 H6          -2.5580    -2.0440    -0.4690 ha         1 EXN       0.117000
     29 H7          -4.8610     1.6470    -0.5840 ha         1 EXN       0.111000
     30 H8          -2.7520     2.9860    -0.4200 ha         1 EXN       0.139000
     31 H9           1.1920     3.1780    -0.6850 h1         1 EXN       0.067200
     32 H10         -0.5080     3.6490    -0.7820 h1         1 EXN       0.067200
     33 H11          0.5720     4.6530     1.2350 hc         1 EXN       0.053367
     34 H12         -0.6970     3.5090     1.7270 hc         1 EXN       0.053367
     35 H13          1.0160     3.0360     1.8250 hc         1 EXN       0.053367
     36 H14         -4.9580    -2.0570    -1.0890 hx         1 EXN       0.096200
     37 H15         -5.8850    -0.5480    -1.2190 hx         1 EXN       0.096200
     38 H16         -7.7580    -1.5500     0.4070 hx         1 EXN       0.100033
     39 H17         -6.8310    -3.0660     0.5370 hx         1 EXN       0.100033
     40 H18         -7.2160    -2.1290     2.0040 hx         1 EXN       0.100033
     41 H19          4.7000    -2.9110    -0.0590 ha         1 EXN       0.144000
     42 H20          7.2490    -2.0530     0.2310 ha         1 EXN       0.152000
     43 H21          7.1030     0.6700     0.4450 h4         1 EXN       0.060100
     44 C13          0.2130     3.0570    -0.2040 c3         1 EXN       0.072600
@<TRIPOS>BOND
     1     1    19 1   
     2     1    22 1   
     3     2     8 1   
     4     2    10 1   
     5     2    44 1   
     6     3    17 1   
     7     3    18 1   
     8     3    23 1   
     9     3    24 1   
    10     4     5 ar  
    11     4     9 ar  
    12     4    25 1   
    13     5     6 ar  
    14     5    26 1   
    15     6     7 ar  
    16     6    19 1   
    17     7     8 ar  
    18     7    27 1   
    19     8     9 ar  
    20     9    11 1   
    21    10    11 ar  
    22    10    15 ar  
    23    11    12 ar  
    24    12    13 ar  
    25    12    28 1   
    26    13    14 ar  
    27    13    17 1   
    28    14    15 ar  
    29    14    29 1   
    30    15    30 1   
    31    16    33 1   
    32    16    34 1   
    33    16    35 1   
    34    16    44 1   
    35    17    36 1   
    36    17    37 1   
    37    18    38 1   
    38    18    39 1   
    39    18    40 1   
    40    19    20 2   
    41    20    21 1   
    42    20    41 1   
    43    21    22 2   
    44    21    42 1   
    45    22    43 1   
    46    31    44 1   
    47    32    44 1   
@<TRIPOS>SUBSTRUCTURE
     1 EXN         1 TEMP              0 ****  ****    0 ROOT
