@<TRIPOS>MOLECULE
EXN
   44    47     1     0     0
SMALL
abcg2


@<TRIPOS>ATOM
      1 O            4.8580     0.3870     0.1040 os         1 EXN      -0.242000
      2 N1          -0.1640     1.5970    -0.2820 na         1 EXN      -0.074600
      3 N2          -5.6950    -1.2490     0.8080 ny         1 EXN      -0.822000
      4 C1           0.6080    -1.8930    -0.1830 ca         1 EXN      -0.053000
      5 C2           1.9830    -1.9070    -0.0870 ca         1 EXN      -0.115000
      6 C3           2.7260    -0.7100    -0.0480 ca         1 EXN      -0.059500
      7 C4           2.0760     0.5200    -0.1070 ca         1 EXN      -0.114000
      8 C5           0.6900     0.5220    -0.2040 ca         1 EXN       0.000800
      9 C6          -0.0570    -0.6700    -0.2390 cp         1 EXN      -0.098000
     10 C7          -1.4520     1.1310    -0.3390 ca         1 EXN       0.038800
     11 C8          -1.4370    -0.2810    -0.3290 cp         1 EXN      -0.082000
     12 C9          -2.6320    -0.9870    -0.4070 ca         1 EXN      -0.013000
     13 C10         -3.8280    -0.2880    -0.4890 ca         1 EXN      -0.244300
     14 C11         -3.8220     1.1160    -0.4900 ca         1 EXN      -0.067000
     15 C12         -2.6480     1.8410    -0.4140 ca         1 EXN      -0.126000
     16 C14          0.4490     3.4480     1.2400 c3         1 EXN      -0.119100
     17 C15         -5.1270    -1.0260    -0.5590 c3         1 EXN       0.172900
     18 C16         -6.9890    -1.9660     0.8070 c3         1 EXN       0.071900
     19 C17          4.1740    -0.7790     0.0590 cc         1 EXN       0.152500
     20 C18          5.0540    -1.8180     0.1310 cd         1 EXN      -0.142000
     21 C19          6.3530    -1.2430     0.2270 cd         1 EXN      -0.185000
     22 C20          6.1700     0.0980     0.2050 cc         1 EXN       0.145900
     23 H1          -5.0210    -1.7660     1.3740 hn         1 EXN       0.502000
     24 H2          -5.8080    -0.3500     1.2790 hn         1 EXN       0.502000
     25 H3           0.0580    -2.8250    -0.2100 ha         1 EXN       0.117000
     26 H4           2.4960    -2.8580    -0.0370 ha         1 EXN       0.129000
     27 H5           2.6320     1.4470    -0.0770 ha         1 EXN       0.141000
     28 H6          -2.6300    -2.0710    -0.4130 ha         1 EXN       0.117000
     29 H7          -4.7610     1.6510    -0.5630 ha         1 EXN       0.111000
     30 H8          -2.6730     2.9220    -0.4200 ha         1 EXN       0.139000
     31 H9           1.1430     3.1180    -0.7790 h1         1 EXN       0.067200
     32 H10         -0.5310     3.5880    -0.6790 h1         1 EXN       0.067200
     33 H11          0.7510     4.4940     1.2500 hc         1 EXN       0.053367
     34 H12         -0.4640     3.3550     1.8280 hc         1 EXN       0.053367
     35 H13          1.2310     2.8690     1.7320 hc         1 EXN       0.053367
     36 H14         -5.0140    -2.0110    -1.0080 hx         1 EXN       0.096200
     37 H15         -5.8810    -0.4750    -1.1180 hx         1 EXN       0.096200
     38 H16         -7.7100    -1.3870     0.2390 hx         1 EXN       0.100033
     39 H17         -6.8480    -2.9420     0.3510 hx         1 EXN       0.100033
     40 H18         -7.3260    -2.0780     1.8320 hx         1 EXN       0.100033
     41 H19          4.8160    -2.8690     0.1180 ha         1 EXN       0.144000
     42 H20          7.2950    -1.7610     0.3020 ha         1 EXN       0.152000
     43 H21          6.8470     0.9350     0.2550 h4         1 EXN       0.060100
     44 C13          0.2340     2.9850    -0.1920 c3         1 EXN       0.072600
@<TRIPOS>BOND
     1     1    19 1   
     2     1    22 1   
     3     2     8 1   
     4     2    10 1   
     5     2    44 1   
     6     3    17 1   
     7     3    18 1   
     8     3    23 1   
     9     3    24 1   
    10     4     5 ar  
    11     4     9 ar  
    12     4    25 1   
    13     5     6 ar  
    14     5    26 1   
    15     6     7 ar  
    16     6    19 1   
    17     7     8 ar  
    18     7    27 1   
    19     8     9 ar  
    20     9    11 1   
    21    10    11 ar  
    22    10    15 ar  
    23    11    12 ar  
    24    12    13 ar  
    25    12    28 1   
    26    13    14 ar  
    27    13    17 1   
    28    14    15 ar  
    29    14    29 1   
    30    15    30 1   
    31    16    33 1   
    32    16    34 1   
    33    16    35 1   
    34    16    44 1   
    35    17    36 1   
    36    17    37 1   
    37    18    38 1   
    38    18    39 1   
    39    18    40 1   
    40    19    20 2   
    41    20    21 1   
    42    20    41 1   
    43    21    22 2   
    44    21    42 1   
    45    22    43 1   
    46    31    44 1   
    47    32    44 1   
@<TRIPOS>SUBSTRUCTURE
     1 EXN         1 TEMP              0 ****  ****    0 ROOT
