@<TRIPOS>MOLECULE
EXO
   23    23     1     0     0
SMALL
bcc


@<TRIPOS>ATOM
      1 OBG         -2.6190    -0.6280     0.0280 oh         1 EXO      -0.598800
      2 CBA         -1.3670    -0.1470     0.4450 c6         1 EXO       0.140300
      3 CBB         -0.3060    -1.0440    -0.2050 c6         1 EXO       0.162100
      4 OBI         -0.4670    -2.3840     0.1860 oh         1 EXO      -0.578800
      5 CBF         -1.1030     1.2920     0.0900 c2         1 EXO      -0.159400
      6 CBH         -1.9680     2.0560    -0.5690 c2         1 EXO      -0.192000
      7 CBE          0.2620     1.7520     0.5030 c6         1 EXO      -0.070200
      8 CBD          1.3230     0.8660    -0.1490 c6         1 EXO       0.106100
      9 OBK          2.6260     1.1870     0.2850 oh         1 EXO      -0.603800
     10 CBC          1.0920    -0.6020     0.2020 c6         1 EXO       0.160100
     11 OBJ          2.0180    -1.4360    -0.4480 oh         1 EXO      -0.577800
     12 HBG         -3.2910    -0.3080     0.6380 ho         1 EXO       0.413000
     13 HBA         -1.2580    -0.2480     1.5370 h1         1 EXO       0.048700
     14 HBB         -0.4020    -0.9380    -1.2980 h1         1 EXO       0.053700
     15 HBI         -1.3670    -2.6450    -0.0340 ho         1 EXO       0.417000
     16 HBH1        -1.7290     3.0830    -0.8170 ha         1 EXO       0.120000
     17 HBH2        -2.9380     1.6950    -0.8840 ha         1 EXO       0.120000
     18 HBE1         0.3680     1.6870     1.5920 hc         1 EXO       0.057200
     19 HBE2         0.4220     2.7950     0.2220 hc         1 EXO       0.057200
     20 HBD          1.2420     0.9740    -1.2410 h1         1 EXO       0.046700
     21 HBK          2.9130     1.9860    -0.1670 ho         1 EXO       0.411000
     22 HBC          1.1750    -0.7020     1.2990 h1         1 EXO       0.049700
     23 HBJ          2.8990    -1.1090    -0.2390 ho         1 EXO       0.417000
@<TRIPOS>BOND
     1     1     2 1   
     2     1    12 1   
     3     2     3 1   
     4     2     5 1   
     5     2    13 1   
     6     3     4 1   
     7     3    10 1   
     8     3    14 1   
     9     4    15 1   
    10     5     6 2   
    11     5     7 1   
    12     6    16 1   
    13     6    17 1   
    14     7     8 1   
    15     7    18 1   
    16     7    19 1   
    17     8     9 1   
    18     8    10 1   
    19     8    20 1   
    20     9    21 1   
    21    10    11 1   
    22    10    22 1   
    23    11    23 1   
@<TRIPOS>SUBSTRUCTURE
     1 EXO         1 TEMP              0 ****  ****    0 ROOT
