@<TRIPOS>MOLECULE
EXO
   23    23     1     0     0
SMALL
No Charge or Current Charge


@<TRIPOS>ATOM
      1 OBG         -2.6840    -0.6520     0.0570 oh         1 EXO      -0.721000
      2 CBA         -1.3650    -0.2260     0.4380 c6         1 EXO       0.163500
      3 CBB         -0.2910    -1.1430    -0.2270 c6         1 EXO       0.185300
      4 OBI         -0.5710    -2.5130     0.1300 oh         1 EXO      -0.701000
      5 CBF         -1.1120     1.2440     0.0840 c2         1 EXO      -0.159400
      6 CBH         -1.9880     2.0590    -0.5350 c2         1 EXO      -0.292000
      7 CBE          0.2860     1.7180     0.4750 c6         1 EXO      -0.070200
      8 CBD          1.3710     0.8150    -0.1650 c6         1 EXO       0.129300
      9 OBK          2.6870     1.2310     0.2450 oh         1 EXO      -0.726000
     10 CBC          1.1430    -0.6840     0.2090 c6         1 EXO       0.183300
     11 OBJ          2.1890    -1.4660    -0.4010 oh         1 EXO      -0.700000
     12 HBG         -3.3090    -0.0310     0.4960 ho         1 EXO       0.512000
     13 HBA         -1.2570    -0.3250     1.5300 h1         1 EXO       0.048700
     14 HBB         -0.3720    -1.0190    -1.3180 h1         1 EXO       0.053700
     15 HBI         -1.5580    -2.5530     0.1290 ho         1 EXO       0.516000
     16 HBH1        -1.7370     3.0940    -0.7690 ha         1 EXO       0.170000
     17 HBH2        -2.9810     1.7340    -0.8470 ha         1 EXO       0.170000
     18 HBE1         0.3840     1.7020     1.5700 hc         1 EXO       0.057200
     19 HBE2         0.4380     2.7620     0.1660 hc         1 EXO       0.057200
     20 HBD          1.2790     0.9090    -1.2590 h1         1 EXO       0.046700
     21 HBK          2.7830     2.1790    -0.0080 ho         1 EXO       0.510000
     22 HBC          1.2090    -0.7730     1.3040 h1         1 EXO       0.049700
     23 HBJ          2.9820    -0.8810    -0.3300 ho         1 EXO       0.516000
@<TRIPOS>BOND
     1     1     2 1   
     2     1    12 1   
     3     2     3 1   
     4     2     5 1   
     5     2    13 1   
     6     3     4 1   
     7     3    10 1   
     8     3    14 1   
     9     4    15 1   
    10     5     6 2   
    11     5     7 1   
    12     6    16 1   
    13     6    17 1   
    14     7     8 1   
    15     7    18 1   
    16     7    19 1   
    17     8     9 1   
    18     8    10 1   
    19     8    20 1   
    20     9    21 1   
    21    10    11 1   
    22    10    22 1   
    23    11    23 1   
@<TRIPOS>SUBSTRUCTURE
     1 EXO         1 TEMP              0 ****  ****    0 ROOT
