@<TRIPOS>MOLECULE
EXP
   32    34     1     0     0
SMALL
No Charge or Current Charge


@<TRIPOS>ATOM
      1 C2           3.0620     0.2200    -0.5820 cc         1 EXP       0.654500
      2 C12         -0.9150     1.3190     0.1440 c3         1 EXP       0.286100
      3 C13         -1.2450    -1.0770    -0.6420 ca         1 EXP      -0.057000
      4 C14         -1.8550    -2.3380    -0.5310 ca         1 EXP      -0.019900
      5 C15         -1.5810    -0.0450     0.2580 ca         1 EXP      -0.112300
      6 C17          5.8520    -1.1700    -2.5680 c3         1 EXP      -0.145400
      7 C18         -3.1440    -1.5540     1.3750 ca         1 EXP      -0.113000
      8 C19         -2.8040    -2.5790     0.4760 ca         1 EXP      -0.081000
      9 C20         -2.5340    -0.2920     1.2680 ca         1 EXP      -0.090000
     10 N1           3.5130     0.2640     0.7110 n          1 EXP      -0.092500
     11 N3           1.8240     0.6520    -0.7030 nd         1 EXP      -0.680000
     12 N4           2.4550     0.6710     1.4670 nc         1 EXP      -0.557800
     13 C5           4.7770    -0.2420     1.0360 c          1 EXP       0.559800
     14 C6           1.5090     0.9120     0.6020 cd         1 EXP       0.797900
     15 C7           5.7500    -0.3350    -0.1370 c6         1 EXP      -0.281700
     16 N8           3.7910    -0.2720    -1.6380 ne         1 EXP      -0.601700
     17 C9           5.0210    -0.6340    -1.4300 c2         1 EXP       0.470300
     18 N10          0.3010     1.3540     0.9640 nu         1 EXP      -0.924100
     19 O11          5.0630    -0.6590     2.1500 o          1 EXP      -0.445000
     20 H1          -0.6850     1.5320    -0.9100 h1         1 EXP       0.062700
     21 H2          -1.6160     2.0950     0.4810 h1         1 EXP       0.062700
     22 H3          -0.5100    -0.9020    -1.4240 ha         1 EXP       0.134000
     23 H4           6.3340    -2.1140    -2.2870 hc         1 EXP       0.067033
     24 H5           5.2420    -1.3590    -3.4590 hc         1 EXP       0.067033
     25 H6           6.6380    -0.4580    -2.8440 hc         1 EXP       0.067033
     26 H7          -3.8780    -1.7380     2.1560 ha         1 EXP       0.117000
     27 H8          -3.2750    -3.5560     0.5600 ha         1 EXP       0.128000
     28 H9          -2.8010     0.4950     1.9710 ha         1 EXP       0.113000
     29 H10          6.1910     0.6610    -0.2630 hc         1 EXP       0.105700
     30 H11          6.5510    -1.0500     0.0890 hc         1 EXP       0.105700
     31 H12          0.1940     1.3570     1.9730 hn         1 EXP       0.502000
     32 Br          -1.3860    -3.7320    -1.7540 br         1 EXP      -0.099100
@<TRIPOS>BOND
     1     1    10 1   
     2     1    11 2   
     3     1    16 1   
     4     2     5 1   
     5     2    18 1   
     6     2    20 1   
     7     2    21 1   
     8     3     4 ar  
     9     3     5 ar  
    10     3    22 1   
    11     4     8 ar  
    12     4    32 1   
    13     5     9 ar  
    14     6    17 1   
    15     6    23 1   
    16     6    24 1   
    17     6    25 1   
    18     7     8 ar  
    19     7     9 ar  
    20     7    26 1   
    21     8    27 1   
    22     9    28 1   
    23    10    12 1   
    24    10    13 1   
    25    11    14 1   
    26    12    14 2   
    27    13    15 1   
    28    13    19 2   
    29    14    18 1   
    30    15    17 1   
    31    15    29 1   
    32    15    30 1   
    33    16    17 2   
    34    18    31 1   
@<TRIPOS>SUBSTRUCTURE
     1 EXP         1 TEMP              0 ****  ****    0 ROOT
