@<TRIPOS>MOLECULE
EXP
   32    34     1     0     0
SMALL
abcg2


@<TRIPOS>ATOM
      1 C2           2.8600     0.1330    -0.5140 cc         1 EXP       0.654500
      2 C12         -0.9730     1.3950     0.1010 c3         1 EXP       0.286100
      3 C13         -1.6700    -0.7280    -1.0470 ca         1 EXP      -0.057000
      4 C14         -2.1110    -2.0420    -1.0110 ca         1 EXP      -0.019900
      5 C15         -1.4250    -0.0470     0.1390 ca         1 EXP      -0.112300
      6 C17          5.5940    -1.5430    -2.2310 c3         1 EXP      -0.145400
      7 C18         -2.0500    -2.0180     1.3740 ca         1 EXP      -0.113000
      8 C19         -2.3050    -2.7020     0.1920 ca         1 EXP      -0.081000
      9 C20         -1.6160    -0.7030     1.3500 ca         1 EXP      -0.090000
     10 N1           3.3730     0.5040     0.6940 n          1 EXP      -0.092500
     11 N3           1.6170     0.5040    -0.5990 nd         1 EXP      -0.680000
     12 N4           2.4200     1.1360     1.4230 nc         1 EXP      -0.557800
     13 C5           4.6680     0.2680     1.1080 c          1 EXP       0.559800
     14 C6           1.3950     1.1120     0.6040 cd         1 EXP       0.797900
     15 C7           5.4720    -0.4710     0.0680 c6         1 EXP      -0.281700
     16 N8           3.5650    -0.5290    -1.4790 ne         1 EXP      -0.601700
     17 C9           4.7820    -0.8150    -1.2190 c2         1 EXP       0.470300
     18 N10          0.2000     1.6710     0.8910 nu         1 EXP      -0.924100
     19 O11          5.0890     0.6160     2.1750 o          1 EXP      -0.445000
     20 H1          -0.8040     1.7000    -0.9330 h1         1 EXP       0.062700
     21 H2          -1.7670     2.0370     0.4830 h1         1 EXP       0.062700
     22 H3          -1.5080    -0.2270    -1.9930 ha         1 EXP       0.134000
     23 H4           5.9300    -2.5010    -1.8300 hc         1 EXP       0.067033
     24 H5           5.0210    -1.7210    -3.1360 hc         1 EXP       0.067033
     25 H6           6.4930    -0.9790    -2.4830 hc         1 EXP       0.067033
     26 H7          -2.2000    -2.5220     2.3190 ha         1 EXP       0.117000
     27 H8          -2.6450    -3.7280     0.2210 ha         1 EXP       0.128000
     28 H9          -1.4250    -0.1920     2.2850 ha         1 EXP       0.113000
     29 H10          6.3650     0.1210    -0.1540 hc         1 EXP       0.105700
     30 H11          5.8520    -1.3900     0.5240 hc         1 EXP       0.105700
     31 H12          0.0800     2.0380     1.8180 hn         1 EXP       0.502000
     32 BR          -2.4400    -2.9520    -2.6310 br         1 EXP      -0.099100
@<TRIPOS>BOND
     1     1    10 1   
     2     1    11 2   
     3     1    16 1   
     4     2     5 1   
     5     2    18 1   
     6     2    20 1   
     7     2    21 1   
     8     3     4 ar  
     9     3     5 ar  
    10     3    22 1   
    11     4     8 ar  
    12     4    32 1   
    13     5     9 ar  
    14     6    17 1   
    15     6    23 1   
    16     6    24 1   
    17     6    25 1   
    18     7     8 ar  
    19     7     9 ar  
    20     7    26 1   
    21     8    27 1   
    22     9    28 1   
    23    10    12 1   
    24    10    13 1   
    25    11    14 1   
    26    12    14 2   
    27    13    15 1   
    28    13    19 2   
    29    14    18 1   
    30    15    17 1   
    31    15    29 1   
    32    15    30 1   
    33    16    17 2   
    34    18    31 1   
@<TRIPOS>SUBSTRUCTURE
     1 EXP         1 TEMP              0 ****  ****    0 ROOT
