@<TRIPOS>MOLECULE
EXQ
   47    50     1     0     0
SMALL
bcc


@<TRIPOS>ATOM
      1 N1          -0.8560     1.6520    -0.2880 na         1 EXQ      -0.046300
      2 C1          -2.1210     1.1290    -0.3510 ca         1 EXQ       0.037800
      3 C2          -2.0470    -0.2790    -0.2790 cp         1 EXQ      -0.081000
      4 C3          -3.2090    -1.0380    -0.3480 ca         1 EXQ      -0.032000
      5 C4          -4.4310    -0.3960    -0.4850 ca         1 EXQ      -0.243300
      6 C5          -4.4840     1.0050    -0.5490 ca         1 EXQ      -0.086000
      7 C6          -3.3440     1.7830    -0.4820 ca         1 EXQ      -0.144000
      8 C7          -5.6970    -1.1900    -0.5390 c3         1 EXQ       0.201100
      9 C8           0.0410     0.6210    -0.1480 ca         1 EXQ       0.005800
     10 C9          -0.6540    -0.6040    -0.1470 cp         1 EXQ      -0.102000
     11 C10          0.0610    -1.7930    -0.0290 ca         1 EXQ      -0.069000
     12 C11          1.4350    -1.7440     0.0910 ca         1 EXQ      -0.136000
     13 C12          2.1280    -0.5170     0.0850 ca         1 EXQ       0.057000
     14 C13          1.4240     0.6780    -0.0390 ca         1 EXQ      -0.151000
     15 C14         -0.5180     3.0590    -0.2490 c3         1 EXQ       0.043300
     16 C15          3.5850    -0.5150     0.2050 cc         1 EXQ      -0.047100
     17 C16          4.4670    -1.5070    -0.1250 cd         1 EXQ      -0.117000
     18 C17          5.8300    -1.1710     0.1140 cd         1 EXQ      -0.095300
     19 C18          5.9520     0.0860     0.6290 cc         1 EXQ      -0.096100
     20 S1           4.4330     0.8560     0.8300 ss         1 EXQ      -0.086800
     21 C19          6.9750    -2.0900    -0.1680 c3         1 EXQ      -0.030800
     22 C20         -0.3720     3.5920     1.1670 c3         1 EXQ      -0.119100
     23 N2          -6.2720    -1.3770     0.8310 ny         1 EXQ      -0.768000
     24 C21         -7.5380    -2.1440     0.8510 c3         1 EXQ       0.101100
     25 H1          -3.1600    -2.1200    -0.3060 ha         1 EXQ       0.135000
     26 H2          -5.4440     1.4950    -0.6670 ha         1 EXQ       0.129000
     27 H3          -3.4130     2.8610    -0.5350 ha         1 EXQ       0.156000
     28 H4          -6.4660    -0.6950    -1.1290 hx         1 EXQ       0.096200
     29 H5          -5.5390    -2.1880    -0.9440 hx         1 EXQ       0.096200
     30 H6          -0.4490    -2.7480    -0.0190 ha         1 EXQ       0.134000
     31 H7           1.9890    -2.6650     0.2110 ha         1 EXQ       0.147000
     32 H8           1.9450     1.6270    -0.0750 ha         1 EXQ       0.150000
     33 H9           0.4060     3.2040    -0.8100 h1         1 EXQ       0.067200
     34 H10         -1.2900     3.6080    -0.7870 h1         1 EXQ       0.067200
     35 H11          4.1590    -2.4520    -0.5520 ha         1 EXQ       0.153000
     36 H12          6.8610     0.6000     0.9030 h4         1 EXQ       0.176000
     37 H13          6.9660    -2.4250    -1.2060 hc         1 EXQ       0.047700
     38 H14          7.9310    -1.6030     0.0200 hc         1 EXQ       0.047700
     39 H15          6.9270    -2.9830     0.4570 hc         1 EXQ       0.047700
     40 H16         -1.3010     3.4880     1.7280 hc         1 EXQ       0.053367
     41 H17          0.4150     3.0690     1.7110 hc         1 EXQ       0.053367
     42 H18         -0.1110     4.6500     1.1390 hc         1 EXQ       0.053367
     43 H19         -5.5840    -1.8410     1.4250 hn         1 EXQ       0.446800
     44 H20         -6.4270    -0.4640     1.2600 hn         1 EXQ       0.446800
     45 H21         -8.2740    -1.6170     0.2530 hx         1 EXQ       0.100033
     46 H22         -7.3560    -3.1310     0.4390 hx         1 EXQ       0.100033
     47 H23         -7.8790    -2.2250     1.8770 hx         1 EXQ       0.100033
@<TRIPOS>BOND
     1     1     2 1   
     2     1     9 1   
     3     1    15 1   
     4     2     3 ar  
     5     2     7 ar  
     6     3     4 ar  
     7     3    10 1   
     8     4     5 ar  
     9     4    25 1   
    10     5     6 ar  
    11     5     8 1   
    12     6     7 ar  
    13     6    26 1   
    14     7    27 1   
    15     8    23 1   
    16     8    28 1   
    17     8    29 1   
    18     9    10 ar  
    19     9    14 ar  
    20    10    11 ar  
    21    11    12 ar  
    22    11    30 1   
    23    12    13 ar  
    24    12    31 1   
    25    13    14 ar  
    26    13    16 1   
    27    14    32 1   
    28    15    22 1   
    29    15    33 1   
    30    15    34 1   
    31    16    17 2   
    32    16    20 1   
    33    17    18 1   
    34    17    35 1   
    35    18    19 2   
    36    18    21 1   
    37    19    20 1   
    38    19    36 1   
    39    21    37 1   
    40    21    38 1   
    41    21    39 1   
    42    22    40 1   
    43    22    41 1   
    44    22    42 1   
    45    23    24 1   
    46    23    43 1   
    47    23    44 1   
    48    24    45 1   
    49    24    46 1   
    50    24    47 1   
@<TRIPOS>SUBSTRUCTURE
     1 EXQ         1 TEMP              0 ****  ****    0 ROOT
