@<TRIPOS>MOLECULE
EXQ
   47    50     1     0     0
SMALL
No Charge or Current Charge


@<TRIPOS>ATOM
      1 N1          -0.8610     1.6970    -0.2730 na         1 EXQ      -0.075600
      2 C1          -2.1670     1.1930    -0.3820 ca         1 EXQ       0.037800
      3 C2          -2.0300    -0.1920    -0.3080 cp         1 EXQ      -0.081000
      4 C3          -3.1660    -1.0180    -0.3840 ca         1 EXQ      -0.014000
      5 C4          -4.4350    -0.4090    -0.5330 ca         1 EXQ      -0.243300
      6 C5          -4.5500     1.0040    -0.6040 ca         1 EXQ      -0.068000
      7 C6          -3.4060     1.8270    -0.5270 ca         1 EXQ      -0.126000
      8 C7          -5.6740    -1.2690    -0.6110 c3         1 EXQ       0.172900
      9 C8           0.1040     0.6870    -0.1220 ca         1 EXQ       0.005800
     10 C9          -0.6120    -0.5060    -0.1470 cp         1 EXQ      -0.102000
     11 C10          0.0640    -1.7310    -0.0120 ca         1 EXQ      -0.051000
     12 C11          1.4680    -1.7100     0.1450 ca         1 EXQ      -0.118000
     13 C12          2.1910    -0.4850     0.1660 ca         1 EXQ       0.057000
     14 C13          1.4940     0.7400     0.0360 ca         1 EXQ      -0.133000
     15 C14         -0.5390     3.1340    -0.2820 c3         1 EXQ       0.072600
     16 C15          3.6460    -0.4710     0.3380 cc         1 EXQ      -0.192000
     17 C16          4.4490    -1.4820    -0.1300 cd         1 EXQ      -0.099000
     18 C17          5.8350    -1.2640     0.1190 cd         1 EXQ      -0.095300
     19 C18          6.0690    -0.0750     0.7710 cc         1 EXQ      -0.223000
     20 S1           4.5810     0.8150     1.0840 ss         1 EXQ       0.203000
     21 C19          6.9070    -2.2350    -0.2980 c3         1 EXQ      -0.030800
     22 C20         -0.5330     3.7510     1.1290 c3         1 EXQ      -0.119100
     23 N2          -6.2180    -1.4050     0.7920 ny         1 EXQ      -0.822000
     24 C21         -7.4930    -2.2410     0.9680 c3         1 EXQ       0.072900
     25 H1          -3.0650    -2.1000    -0.3260 ha         1 EXQ       0.117000
     26 H2          -5.5300     1.4650    -0.7190 ha         1 EXQ       0.111000
     27 H3          -3.4900     2.9100    -0.5770 ha         1 EXQ       0.138000
     28 H4          -6.4340    -0.8090    -1.2510 hx         1 EXQ       0.096200
     29 H5          -5.4420    -2.2620    -1.0080 hx         1 EXQ       0.096200
     30 H6          -0.4810    -2.6720    -0.0210 ha         1 EXQ       0.116000
     31 H7           1.9910    -2.6540     0.2660 ha         1 EXQ       0.129000
     32 H8           2.0170     1.6910     0.0500 ha         1 EXQ       0.132000
     33 H9           0.4450     3.2760    -0.7460 h1         1 EXQ       0.067200
     34 H10         -1.2710     3.6600    -0.9070 h1         1 EXQ       0.067200
     35 H11          4.0780    -2.3600    -0.6490 ha         1 EXQ       0.135000
     36 H12          7.0130     0.3520     1.0860 h4         1 EXQ       0.158000
     37 H13          6.9750    -2.2980    -1.3910 hc         1 EXQ       0.047700
     38 H14          7.8910    -1.9320     0.0810 hc         1 EXQ       0.047700
     39 H15          6.6970    -3.2400     0.0840 hc         1 EXQ       0.047700
     40 H16         -1.5170     3.6430     1.6020 hc         1 EXQ       0.053367
     41 H17          0.2130     3.2570     1.7640 hc         1 EXQ       0.053367
     42 H18         -0.2900     4.8180     1.0780 hc         1 EXQ       0.053367
     43 H19         -5.4630    -1.7780     1.4040 hn         1 EXQ       0.502000
     44 H20         -6.3650    -0.4500     1.1820 hn         1 EXQ       0.502000
     45 H21         -8.3050    -1.8040     0.3810 hx         1 EXQ       0.100033
     46 H22         -7.3140    -3.2640     0.6240 hx         1 EXQ       0.100033
     47 H23         -7.7840    -2.2630     2.0230 hx         1 EXQ       0.100033
@<TRIPOS>BOND
     1     1     2 1   
     2     1     9 1   
     3     1    15 1   
     4     2     3 ar  
     5     2     7 ar  
     6     3     4 ar  
     7     3    10 1   
     8     4     5 ar  
     9     4    25 1   
    10     5     6 ar  
    11     5     8 1   
    12     6     7 ar  
    13     6    26 1   
    14     7    27 1   
    15     8    23 1   
    16     8    28 1   
    17     8    29 1   
    18     9    10 ar  
    19     9    14 ar  
    20    10    11 ar  
    21    11    12 ar  
    22    11    30 1   
    23    12    13 ar  
    24    12    31 1   
    25    13    14 ar  
    26    13    16 1   
    27    14    32 1   
    28    15    22 1   
    29    15    33 1   
    30    15    34 1   
    31    16    17 2   
    32    16    20 1   
    33    17    18 1   
    34    17    35 1   
    35    18    19 2   
    36    18    21 1   
    37    19    20 1   
    38    19    36 1   
    39    21    37 1   
    40    21    38 1   
    41    21    39 1   
    42    22    40 1   
    43    22    41 1   
    44    22    42 1   
    45    23    24 1   
    46    23    43 1   
    47    23    44 1   
    48    24    45 1   
    49    24    46 1   
    50    24    47 1   
@<TRIPOS>SUBSTRUCTURE
     1 EXQ         1 TEMP              0 ****  ****    0 ROOT
