@<TRIPOS>MOLECULE
EXR
   25    26     1     0     0
SMALL
abcg2


@<TRIPOS>ATOM
      1 C4           8.6220   135.2670    -8.2180 ca         1 EXR      -0.150000
      2 C5           5.8850   135.6070    -8.1980 ca         1 EXR      -0.132000
      3 C6           6.4560   134.4490    -7.6580 ca         1 EXR      -0.120000
      4 C7           7.8260   134.2680    -7.6620 ca         1 EXR      -0.089000
      5 C8           6.6770   136.5950    -8.7480 ca         1 EXR      -0.060000
      6 C9           8.0680   136.4350    -8.7690 ca         1 EXR      -0.044800
      7 N            7.9100   139.7610   -12.0050 n8         1 EXR      -0.977200
      8 CA           8.2160   138.4780   -11.3870 c3         1 EXR       0.016500
      9 C1           9.0730   137.3350    -9.2810 cc         1 EXR      -0.027400
     10 C2          10.3170   136.8330    -9.1070 cd         1 EXR      -0.126400
     11 S3          10.3510   135.2810    -8.3350 ss         1 EXR      -0.007600
     12 C            9.2440   137.7210   -12.2570 c          1 EXR       0.729000
     13 O1          10.2800   138.3600   -12.5380 o          1 EXR      -0.728500
     14 O2           8.9710   136.5510   -12.5830 o          1 EXR      -0.728500
     15 H1           4.8090   135.7280    -8.1820 ha         1 EXR       0.098000
     16 H2           5.8190   133.6850    -7.2310 ha         1 EXR       0.094000
     17 H3           8.2670   133.3740    -7.2410 ha         1 EXR       0.105000
     18 H4           6.2260   137.4890    -9.1620 ha         1 EXR       0.119000
     19 H8           7.2910   137.8950   -11.3420 h1         1 EXR       0.049700
     20 H11         11.2470   137.2970    -9.4010 h4         1 EXR       0.224000
     21 CB           8.7680   138.6330    -9.9540 c3         1 EXR      -0.040200
     22 H7           7.3490   140.3210   -11.3730 hn         1 EXR       0.370500
     23 H10          9.6730   139.2430    -9.9990 hc         1 EXR       0.027700
     24 H9           8.0390   139.1940    -9.3580 hc         1 EXR       0.027700
     25 H5           8.7820   140.2640   -12.1270 hn         1 EXR       0.370500
@<TRIPOS>BOND
     1     1     4 ar  
     2     1     6 ar  
     3     1    11 1   
     4     2     3 ar  
     5     2     5 ar  
     6     2    15 1   
     7     3     4 ar  
     8     3    16 1   
     9     4    17 1   
    10     5     6 ar  
    11     5    18 1   
    12     6     9 1   
    13     7     8 1   
    14     7    22 1   
    15     7    25 1   
    16     8    12 1   
    17     8    19 1   
    18     8    21 1   
    19     9    10 2   
    20     9    21 1   
    21    10    11 1   
    22    10    20 1   
    23    12    13 1   
    24    12    14 1   
    25    21    23 1   
    26    21    24 1   
@<TRIPOS>SUBSTRUCTURE
     1 EXR         1 TEMP              0 ****  ****    0 ROOT
