@<TRIPOS>MOLECULE
EXR
   25    26     1     0     0
SMALL
No Charge or Current Charge


@<TRIPOS>ATOM
      1 C4           8.6360   135.2830    -8.1910 ca         1 EXR      -0.150000
      2 C5           5.8650   135.6080    -8.2240 ca         1 EXR      -0.132000
      3 C6           6.4300   134.4500    -7.6510 ca         1 EXR      -0.120000
      4 C7           7.8270   134.2820    -7.6310 ca         1 EXR      -0.089000
      5 C8           6.6950   136.6020    -8.7810 ca         1 EXR      -0.060000
      6 C9           8.0900   136.4200    -8.7590 ca         1 EXR      -0.044800
      7 N            7.8120   139.8160   -11.9590 n8         1 EXR      -0.977200
      8 CA           8.2510   138.4770   -11.4150 c3         1 EXR       0.016500
      9 C1           9.0870   137.3390    -9.2830 cc         1 EXR      -0.027400
     10 C2          10.3620   136.8330    -9.0720 cd         1 EXR      -0.126400
     11 S3          10.4040   135.2470    -8.2510 ss         1 EXR      -0.007600
     12 C            9.2700   137.6540   -12.3090 c          1 EXR       0.729000
     13 O1          10.3880   138.1190   -12.5030 o          1 EXR      -0.728500
     14 O2           8.8730   136.6280   -12.8480 o          1 EXR      -0.728500
     15 H1           4.7850   135.7360    -8.2350 ha         1 EXR       0.098000
     16 H2           5.7860   133.6860    -7.2210 ha         1 EXR       0.094000
     17 H3           8.2720   133.3930    -7.1890 ha         1 EXR       0.105000
     18 H4           6.2550   137.4940    -9.2180 ha         1 EXR       0.119000
     19 H8           7.3450   137.8600   -11.3470 h1         1 EXR       0.049700
     20 H11         11.2970   137.2970    -9.3620 h4         1 EXR       0.224000
     21 CB           8.7860   138.6490    -9.9680 c3         1 EXR      -0.040200
     22 H7           7.2670   140.3130   -11.2450 hn         1 EXR       0.370500
     23 H10          9.6910   139.2680    -9.9880 hc         1 EXR       0.027700
     24 H9           8.0520   139.2040    -9.3710 hc         1 EXR       0.027700
     25 H5           8.6420   140.4060   -12.0940 hn         1 EXR       0.370500
@<TRIPOS>BOND
     1     1     4 ar  
     2     1     6 ar  
     3     1    11 1   
     4     2     3 ar  
     5     2     5 ar  
     6     2    15 1   
     7     3     4 ar  
     8     3    16 1   
     9     4    17 1   
    10     5     6 ar  
    11     5    18 1   
    12     6     9 1   
    13     7     8 1   
    14     7    22 1   
    15     7    25 1   
    16     8    12 1   
    17     8    19 1   
    18     8    21 1   
    19     9    10 2   
    20     9    21 1   
    21    10    11 1   
    22    10    20 1   
    23    12    13 1   
    24    12    14 1   
    25    21    23 1   
    26    21    24 1   
@<TRIPOS>SUBSTRUCTURE
     1 EXR         1 TEMP              0 ****  ****    0 ROOT
