@<TRIPOS>MOLECULE
EXU
   25    26     1     0     0
SMALL
No Charge or Current Charge


@<TRIPOS>ATOM
      1 C4           0.2830    -0.9010    -0.0280 cc         1 EXU       0.169200
      2 C5           0.5300     0.4380     0.0090 cd         1 EXU      -0.228600
      3 C6          -0.5810     1.4160     0.0240 c          1 EXU       0.629200
      4 C8           2.5460    -0.6480     0.0090 c          1 EXU       0.583000
      5 N1          -1.8640     0.8390    -0.0120 n          1 EXU      -0.372400
      6 N3          -0.9930    -1.4180    -0.0520 n          1 EXU      -0.300000
      7 CAK         -1.2380    -2.8800    -0.0830 c3         1 EXU       0.092300
      8 C2          -2.1050    -0.5500    -0.0340 c          1 EXU       0.622000
      9 O2          -3.2470    -0.9940    -0.0340 o          1 EXU      -0.545000
     10 CAJ         -3.0420     1.7500     0.0000 c3         1 EXU       0.083300
     11 O6          -0.3950     2.6250     0.0670 o          1 EXU      -0.526000
     12 N9           1.5080    -1.5200    -0.0270 ns         1 EXU      -0.509600
     13 O8           3.7370    -0.9110     0.0190 o          1 EXU      -0.557000
     14 N7           1.9170     0.6000     0.0310 n          1 EXU      -0.257000
     15 CAL          2.6440     1.8820     0.0750 c3         1 EXU       0.109300
     16 H1          -1.6870    -3.1980     0.8660 h1         1 EXU       0.059367
     17 H2          -1.9240    -3.1250    -0.9040 h1         1 EXU       0.059367
     18 H3          -0.3040    -3.4330    -0.2360 h1         1 EXU       0.059367
     19 H4          -3.8480     1.3480    -0.6280 h1         1 EXU       0.060367
     20 H5          -3.4120     1.8580     1.0280 h1         1 EXU       0.060367
     21 H6          -2.7850     2.7420    -0.3910 h1         1 EXU       0.060367
     22 H7           1.6710    -2.5190    -0.0460 hn         1 EXU       0.473000
     23 H8           3.7280     1.7100     0.0750 h1         1 EXU       0.058700
     24 H9           2.3790     2.4850    -0.8020 h1         1 EXU       0.058700
     25 H10          2.3700     2.4290     0.9850 h1         1 EXU       0.058700
@<TRIPOS>BOND
     1     1     2 2   
     2     1     6 1   
     3     1    12 1   
     4     2     3 1   
     5     2    14 1   
     6     3     5 1   
     7     3    11 2   
     8     4    12 1   
     9     4    13 2   
    10     4    14 1   
    11     5     8 1   
    12     5    10 1   
    13     6     7 1   
    14     6     8 1   
    15     7    16 1   
    16     7    17 1   
    17     7    18 1   
    18     8     9 2   
    19    10    19 1   
    20    10    20 1   
    21    10    21 1   
    22    12    22 1   
    23    14    15 1   
    24    15    23 1   
    25    15    24 1   
    26    15    25 1   
@<TRIPOS>SUBSTRUCTURE
     1 EXU         1 TEMP              0 ****  ****    0 ROOT
