@<TRIPOS>MOLECULE
EXU
   25    26     1     0     0
SMALL
abcg2


@<TRIPOS>ATOM
      1 C4           0.2440    -0.8660    -0.0250 cc         1 EXU       0.169200
      2 C5           0.5020     0.4670    -0.0070 cd         1 EXU      -0.228600
      3 C6          -0.5430     1.4220    -0.0180 c          1 EXU       0.629200
      4 C8           2.4750    -0.6120     0.0370 c          1 EXU       0.583000
      5 N1          -1.8140     0.8190    -0.0430 n          1 EXU      -0.372400
      6 N3          -1.0000    -1.3940    -0.0670 n          1 EXU      -0.300000
      7 CAK         -1.2130    -2.8340    -0.0430 c3         1 EXU       0.092300
      8 C2          -2.0830    -0.5360    -0.0430 c          1 EXU       0.622000
      9 O2          -3.2210    -0.9600    -0.0280 o          1 EXU      -0.545000
     10 CAJ         -2.9890     1.6830    -0.0370 c3         1 EXU       0.083300
     11 O6          -0.4090     2.6340    -0.0070 o          1 EXU      -0.526000
     12 N9           1.4250    -1.5260     0.0030 ns         1 EXU      -0.509600
     13 O8           3.6600    -0.8870     0.0690 o          1 EXU      -0.557000
     14 N7           1.8880     0.6160     0.0290 n          1 EXU      -0.257000
     15 CAL          2.6140     1.8620     0.0750 c3         1 EXU       0.109300
     16 H1          -1.2220    -3.2090     0.9790 h1         1 EXU       0.059367
     17 H2          -2.1580    -3.0690    -0.5190 h1         1 EXU       0.059367
     18 H3          -0.4230    -3.3280    -0.6040 h1         1 EXU       0.059367
     19 H4          -3.6070     1.4980    -0.9130 h1         1 EXU       0.060367
     20 H5          -3.5850     1.5180     0.8580 h1         1 EXU       0.060367
     21 H6          -2.6600     2.7150    -0.0540 h1         1 EXU       0.060367
     22 H7           1.5680    -2.5250     0.0080 hn         1 EXU       0.473000
     23 H8           3.6770     1.6380     0.0890 h1         1 EXU       0.058700
     24 H9           2.3980     2.4710    -0.8000 h1         1 EXU       0.058700
     25 H10          2.3630     2.4260     0.9710 h1         1 EXU       0.058700
@<TRIPOS>BOND
     1     1     2 2   
     2     1     6 1   
     3     1    12 1   
     4     2     3 1   
     5     2    14 1   
     6     3     5 1   
     7     3    11 2   
     8     4    12 1   
     9     4    13 2   
    10     4    14 1   
    11     5     8 1   
    12     5    10 1   
    13     6     7 1   
    14     6     8 1   
    15     7    16 1   
    16     7    17 1   
    17     7    18 1   
    18     8     9 2   
    19    10    19 1   
    20    10    20 1   
    21    10    21 1   
    22    12    22 1   
    23    14    15 1   
    24    15    23 1   
    25    15    24 1   
    26    15    25 1   
@<TRIPOS>SUBSTRUCTURE
     1 EXU         1 TEMP              0 ****  ****    0 ROOT
