@<TRIPOS>MOLECULE
EXW
   52    53     1     0     0
SMALL
abcg2


@<TRIPOS>ATOM
      1 CAA          0.0670     1.9000    -1.1760 c3         1 EXW      -0.050200
      2 CAB         -1.1820     1.3540    -0.4600 c3         1 EXW      -0.061400
      3 CAC         -1.5160    -0.0700    -0.9010 c5         1 EXW      -0.052700
      4 CAD         -0.4830    -1.2110    -0.5470 c5         1 EXW      -0.028000
      5 CAE         -1.3660    -2.4000    -0.0960 c5         1 EXW      -0.074400
      6 CAF         -2.7830    -2.0900    -0.5710 c5         1 EXW      -0.072400
      7 CAG         -2.9250    -0.5650    -0.4790 c5         1 EXW      -0.024500
      8 CAH         -3.4400    -0.0510     0.8450 c2         1 EXW      -0.099400
      9 CAI          0.2690    -1.6070    -1.8230 c3         1 EXW      -0.085100
     10 CAJ          0.5010    -0.7860     0.5740 c3         1 EXW      -0.062200
     11 CAK          1.8710    -1.3590     0.5480 c2         1 EXW       0.113300
     12 CAM          3.0220    -0.7460     0.2820 c2         1 EXW      -0.162400
     13 CAN          4.3430    -1.4560     0.3390 c3         1 EXW      -0.047900
     14 CAO          3.0700     0.7080    -0.1520 c3         1 EXW      -0.029200
     15 CAP          2.5560     1.7480     0.8730 c3         1 EXW      -0.033200
     16 CAQ          1.8030     2.9520     0.3510 c2         1 EXW      -0.222200
     17 CAR          0.7480     3.0460    -0.4700 c2         1 EXW      -0.109400
     18 CAS          0.1260     4.3870    -0.7410 c3         1 EXW      -0.057900
     19 CAT         -2.9010    -0.6000     2.1330 c3         1 EXW      -0.054900
     20 CAU         -4.3970     0.8770     0.8640 c2         1 EXW      -0.331000
     21 FAL          1.8820    -2.6800     0.8880 f          1 EXW      -0.192500
     22 H1           0.7690     1.0870    -1.3360 hc         1 EXW       0.046700
     23 H2          -0.2300     2.2240    -2.1790 hc         1 EXW       0.046700
     24 H3          -1.0560     1.4090     0.6250 hc         1 EXW       0.045700
     25 H4          -2.0380     1.9980    -0.6780 hc         1 EXW       0.045700
     26 H5          -1.5540    -0.0420    -1.9970 hc         1 EXW       0.042700
     27 H7          -1.0000    -3.3500    -0.4920 hc         1 EXW       0.047200
     28 H8          -1.3490    -2.4970     0.9910 hc         1 EXW       0.047200
     29 H9          -2.9020    -2.3860    -1.6160 hc         1 EXW       0.044200
     30 H10         -3.5470    -2.6290    -0.0060 hc         1 EXW       0.044200
     31 H11         -3.6350    -0.2160    -1.2330 hc         1 EXW       0.048700
     32 H14          0.8350    -0.7760    -2.2490 hc         1 EXW       0.035700
     33 H15          0.9690    -2.4250    -1.6470 hc         1 EXW       0.035700
     34 H16         -0.4380    -1.9410    -2.5850 hc         1 EXW       0.035700
     35 H17          0.6160     0.2890     0.5710 hc         1 EXW       0.065200
     36 H18          0.0640    -1.0190     1.5500 hc         1 EXW       0.065200
     37 H21          4.2680    -2.4880     0.6710 hc         1 EXW       0.044033
     38 H22          4.8210    -1.4560    -0.6440 hc         1 EXW       0.044033
     39 H23          5.0250    -0.9330     1.0140 hc         1 EXW       0.044033
     40 H24          4.1090     0.9520    -0.3830 hc         1 EXW       0.048200
     41 H25          2.5520     0.8160    -1.1040 hc         1 EXW       0.048200
     42 H26          1.9450     1.2550     1.6330 hc         1 EXW       0.045200
     43 H27          3.4190     2.1200     1.4270 hc         1 EXW       0.045200
     44 H28          2.1430     3.8910     0.7800 ha         1 EXW       0.164000
     45 H31         -0.9340     4.3880    -0.4720 hc         1 EXW       0.039033
     46 H32          0.6110     5.1900    -0.1870 hc         1 EXW       0.039033
     47 H33          0.1720     4.6310    -1.8060 hc         1 EXW       0.039033
     48 H34         -1.8270    -0.4390     2.2400 hc         1 EXW       0.039033
     49 H35         -3.3860    -0.1320     2.9890 hc         1 EXW       0.039033
     50 H36         -3.0650    -1.6770     2.2090 hc         1 EXW       0.039033
     51 H37         -4.8200     1.2770    -0.0500 ha         1 EXW       0.161000
     52 H38         -4.7910     1.2720     1.7930 ha         1 EXW       0.161000
@<TRIPOS>BOND
     1     1     2 1   
     2     1    17 1   
     3     1    22 1   
     4     1    23 1   
     5     2     3 1   
     6     2    24 1   
     7     2    25 1   
     8     3     4 1   
     9     3     7 1   
    10     3    26 1   
    11     4     5 1   
    12     4     9 1   
    13     4    10 1   
    14     5     6 1   
    15     5    27 1   
    16     5    28 1   
    17     6     7 1   
    18     6    29 1   
    19     6    30 1   
    20     7     8 1   
    21     7    31 1   
    22     8    19 1   
    23     8    20 2   
    24     9    32 1   
    25     9    33 1   
    26     9    34 1   
    27    10    11 1   
    28    10    35 1   
    29    10    36 1   
    30    11    12 2   
    31    11    21 1   
    32    12    13 1   
    33    12    14 1   
    34    13    37 1   
    35    13    38 1   
    36    13    39 1   
    37    14    15 1   
    38    14    40 1   
    39    14    41 1   
    40    15    16 1   
    41    15    42 1   
    42    15    43 1   
    43    16    17 2   
    44    16    44 1   
    45    17    18 1   
    46    18    45 1   
    47    18    46 1   
    48    18    47 1   
    49    19    48 1   
    50    19    49 1   
    51    19    50 1   
    52    20    51 1   
    53    20    52 1   
@<TRIPOS>SUBSTRUCTURE
     1 EXW         1 TEMP              0 ****  ****    0 ROOT
