@<TRIPOS>MOLECULE
EXW
   52    53     1     0     0
SMALL
No Charge or Current Charge


@<TRIPOS>ATOM
      1 CAA          0.0480     1.9480    -1.2550 c3         1 EXW      -0.050200
      2 CAB         -1.2380     1.4130    -0.5760 c3         1 EXW      -0.061400
      3 CAC         -1.5810    -0.0780    -0.9220 c5         1 EXW      -0.052700
      4 CAD         -0.5400    -1.2480    -0.5490 c5         1 EXW      -0.028000
      5 CAE         -1.4710    -2.4430    -0.1110 c5         1 EXW      -0.074400
      6 CAF         -2.8820    -2.1020    -0.6550 c5         1 EXW      -0.072400
      7 CAG         -2.9950    -0.5650    -0.4640 c5         1 EXW      -0.024500
      8 CAH         -3.4090    -0.0920     0.9540 c2         1 EXW      -0.099400
      9 CAI          0.2710    -1.6740    -1.8160 c3         1 EXW      -0.085100
     10 CAJ          0.4870    -0.8860     0.6160 c3         1 EXW      -0.062200
     11 CAK          1.9320    -1.4170     0.5870 c2         1 EXW       0.113300
     12 CAM          3.0620    -0.7180     0.3020 c2         1 EXW      -0.162400
     13 CAN          4.4450    -1.3600     0.3510 c3         1 EXW      -0.047900
     14 CAO          3.1510     0.7600    -0.1260 c3         1 EXW      -0.029200
     15 CAP          2.5830     1.7990     0.8860 c3         1 EXW      -0.033200
     16 CAQ          1.8100     3.0020     0.3260 c2         1 EXW      -0.222200
     17 CAR          0.7520     3.0880    -0.5200 c2         1 EXW      -0.109400
     18 CAS          0.1150     4.4290    -0.8450 c3         1 EXW      -0.057900
     19 CAT         -3.0500    -0.8370     2.2280 c3         1 EXW      -0.054900
     20 CAU         -4.1630     1.0210     1.0070 c2         1 EXW      -0.331000
     21 FAL          1.9760    -2.7090     0.9400 f          1 EXW      -0.192500
     22 H1           0.7250     1.1150    -1.3820 hc         1 EXW       0.046700
     23 H2          -0.1930     2.2470    -2.2830 hc         1 EXW       0.046700
     24 H3          -1.1580     1.5390     0.5100 hc         1 EXW       0.045700
     25 H4          -2.0700     2.0600    -0.8790 hc         1 EXW       0.045700
     26 H5          -1.6400    -0.0440    -2.0170 hc         1 EXW       0.042700
     27 H7          -1.1230    -3.4050    -0.5070 hc         1 EXW       0.047200
     28 H8          -1.4930    -2.5890     0.9720 hc         1 EXW       0.047200
     29 H9          -2.9540    -2.3620    -1.7180 hc         1 EXW       0.044200
     30 H10         -3.6780    -2.6520    -0.1420 hc         1 EXW       0.044200
     31 H11         -3.7380    -0.1870    -1.1770 hc         1 EXW       0.048700
     32 H14          0.9570    -0.8950    -2.1620 hc         1 EXW       0.035700
     33 H15          0.8700    -2.5720    -1.6270 hc         1 EXW       0.035700
     34 H16         -0.3970    -1.9150    -2.6520 hc         1 EXW       0.035700
     35 H17          0.5420     0.1870     0.7060 hc         1 EXW       0.065200
     36 H18          0.0650    -1.1690     1.5840 hc         1 EXW       0.065200
     37 H21          4.4140    -2.4150     0.6440 hc         1 EXW       0.044033
     38 H22          4.9340    -1.3130    -0.6300 hc         1 EXW       0.044033
     39 H23          5.0920    -0.8450     1.0710 hc         1 EXW       0.044033
     40 H24          4.2000     1.0370    -0.2870 hc         1 EXW       0.048200
     41 H25          2.7290     0.8850    -1.1230 hc         1 EXW       0.048200
     42 H26          2.0010     1.3130     1.6750 hc         1 EXW       0.045200
     43 H27          3.4480     2.1890     1.4370 hc         1 EXW       0.045200
     44 H28          2.1870     3.9320     0.7530 ha         1 EXW       0.164000
     45 H31         -0.9440     4.4430    -0.5620 hc         1 EXW       0.039033
     46 H32          0.6030     5.2560    -0.3150 hc         1 EXW       0.039033
     47 H33          0.1780     4.6490    -1.9180 hc         1 EXW       0.039033
     48 H34         -1.9730    -0.8170     2.4140 hc         1 EXW       0.039033
     49 H35         -3.5260    -0.3830     3.1060 hc         1 EXW       0.039033
     50 H36         -3.3810    -1.8800     2.1940 hc         1 EXW       0.039033
     51 H37         -4.4510     1.5740     0.1130 ha         1 EXW       0.161000
     52 H38         -4.5190     1.4270     1.9550 ha         1 EXW       0.161000
@<TRIPOS>BOND
     1     1     2 1   
     2     1    17 1   
     3     1    22 1   
     4     1    23 1   
     5     2     3 1   
     6     2    24 1   
     7     2    25 1   
     8     3     4 1   
     9     3     7 1   
    10     3    26 1   
    11     4     5 1   
    12     4     9 1   
    13     4    10 1   
    14     5     6 1   
    15     5    27 1   
    16     5    28 1   
    17     6     7 1   
    18     6    29 1   
    19     6    30 1   
    20     7     8 1   
    21     7    31 1   
    22     8    19 1   
    23     8    20 2   
    24     9    32 1   
    25     9    33 1   
    26     9    34 1   
    27    10    11 1   
    28    10    35 1   
    29    10    36 1   
    30    11    12 2   
    31    11    21 1   
    32    12    13 1   
    33    12    14 1   
    34    13    37 1   
    35    13    38 1   
    36    13    39 1   
    37    14    15 1   
    38    14    40 1   
    39    14    41 1   
    40    15    16 1   
    41    15    42 1   
    42    15    43 1   
    43    16    17 2   
    44    16    44 1   
    45    17    18 1   
    46    18    45 1   
    47    18    46 1   
    48    18    47 1   
    49    19    48 1   
    50    19    49 1   
    51    19    50 1   
    52    20    51 1   
    53    20    52 1   
@<TRIPOS>SUBSTRUCTURE
     1 EXW         1 TEMP              0 ****  ****    0 ROOT
