@<TRIPOS>MOLECULE
EXX
   31    33     1     0     0
SMALL
No Charge or Current Charge


@<TRIPOS>ATOM
      1 BrE          2.4430     3.2500     0.4590 br         1 EXX      -0.019100
      2 CAN          1.4860     1.5960     0.2350 ca         1 EXX       0.056100
      3 CAL          2.1580     0.3540     0.2320 ca         1 EXX      -0.012900
      4 BrC          4.0700     0.2990     0.4540 br         1 EXX      -0.031100
      5 CAM          1.4230    -0.8470     0.0650 ca         1 EXX       0.021100
      6 BrD          2.3500    -2.5380     0.0620 br         1 EXX      -0.032100
      7 CAO          0.0160    -0.8090    -0.0980 ca         1 EXX       0.001100
      8 BrF         -0.9470    -2.4640    -0.3250 br         1 EXX      -0.055100
      9 CAQ         -0.6250     0.4540    -0.0890 ca         1 EXX      -0.054200
     10 CAP          0.0900     1.6140     0.0720 ca         1 EXX       0.090400
     11 NAJ         -0.7240     2.7310     0.0520 nc         1 EXX      -0.562100
     12 CAG         -1.9470     2.2010    -0.1260 cd         1 EXX       0.440700
     13 NAU         -1.9610     0.7970    -0.2220 na         1 EXX      -0.195600
     14 CAT         -3.1560    -0.0340    -0.3890 c5         1 EXX       0.320300
     15 OAK         -4.2420     0.7950    -0.8690 os         1 EXX      -0.435000
     16 CAI         -3.6830    -0.6900     0.9260 c5         1 EXX      -0.166400
     17 CAR         -4.8630     0.2310     1.3070 c5         1 EXX       0.137300
     18 OAB         -5.7810    -0.4210     2.1880 oh         1 EXX      -0.700000
     19 CAS         -5.4330     0.4770    -0.1140 c5         1 EXX       0.155300
     20 CAH         -6.4730     1.6280    -0.2110 c3         1 EXX       0.164600
     21 OAA         -7.0600     1.6990    -1.5250 oh         1 EXX      -0.705000
     22 H1          -2.8650     2.7730    -0.1880 h5         1 EXX       0.079800
     23 H2          -2.9120    -0.7910    -1.1440 h2         1 EXX       0.107700
     24 H3          -4.0160    -1.7170     0.7320 hc         1 EXX       0.084700
     25 H4          -2.9170    -0.7410     1.7080 hc         1 EXX       0.084700
     26 H5          -4.5040     1.1740     1.7460 h1         1 EXX       0.047700
     27 H6          -5.3200    -0.5440     3.0510 ho         1 EXX       0.517000
     28 H7          -5.8810    -0.4420    -0.5170 h1         1 EXX       0.089700
     29 H8          -7.2570     1.4520     0.5380 h1         1 EXX       0.030200
     30 H9          -5.9780     2.5750     0.0440 h1         1 EXX       0.030200
     31 H10         -7.6690     2.4750    -1.5270 ho         1 EXX       0.509000
@<TRIPOS>BOND
     1     1     2 1   
     2     2     3 ar  
     3     2    10 ar  
     4     3     4 1   
     5     3     5 ar  
     6     5     6 1   
     7     5     7 ar  
     8     7     8 1   
     9     7     9 ar  
    10     9    10 ar  
    11     9    13 1   
    12    10    11 1   
    13    11    12 2   
    14    12    13 1   
    15    12    22 1   
    16    13    14 1   
    17    14    15 1   
    18    14    16 1   
    19    14    23 1   
    20    15    19 1   
    21    16    17 1   
    22    16    24 1   
    23    16    25 1   
    24    17    18 1   
    25    17    19 1   
    26    17    26 1   
    27    18    27 1   
    28    19    20 1   
    29    19    28 1   
    30    20    21 1   
    31    20    29 1   
    32    20    30 1   
    33    21    31 1   
@<TRIPOS>SUBSTRUCTURE
     1 EXX         1 TEMP              0 ****  ****    0 ROOT
