@<TRIPOS>MOLECULE
EXX
   31    33     1     0     0
SMALL
abcg2


@<TRIPOS>ATOM
      1 BRE          1.9080     3.4180     0.4820 br         1 EXX      -0.019100
      2 CAN          1.1950     1.7080     0.2730 ca         1 EXX       0.056100
      3 CAL          1.9500     0.5520     0.3790 ca         1 EXX      -0.012900
      4 BRC          3.7790     0.6790     0.7550 br         1 EXX      -0.031100
      5 CAM          1.3430    -0.7100     0.2030 ca         1 EXX       0.021100
      6 BRD          2.3940    -2.2550     0.3400 br         1 EXX      -0.032100
      7 CAO         -0.0170    -0.8310    -0.0730 ca         1 EXX       0.001100
      8 BRF         -0.7830    -2.5190    -0.3350 br         1 EXX      -0.055100
      9 CAQ         -0.7730     0.3390    -0.1620 ca         1 EXX      -0.054200
     10 CAP         -0.1650     1.5980     0.0010 ca         1 EXX       0.090400
     11 NAJ         -1.0780     2.5950    -0.1440 nc         1 EXX      -0.562100
     12 CAG         -2.2000     1.9820    -0.3790 cd         1 EXX       0.440700
     13 NAU         -2.0980     0.6270    -0.4030 na         1 EXX      -0.195600
     14 CAT         -3.2420    -0.2970    -0.5530 c5         1 EXX       0.320300
     15 OAK         -4.3330     0.4350    -1.0240 os         1 EXX      -0.435000
     16 CAI         -3.6630    -0.8950     0.7830 c5         1 EXX      -0.166400
     17 CAR         -4.7270     0.0900     1.2590 c5         1 EXX       0.137300
     18 OAB         -5.6820    -0.4360     2.1350 oh         1 EXX      -0.700000
     19 CAS         -5.3870     0.4750    -0.0590 c5         1 EXX       0.155300
     20 CAH         -6.0420     1.8330    -0.0410 c3         1 EXX       0.164600
     21 OAA         -6.6780     2.0530    -1.2760 oh         1 EXX      -0.705000
     22 H1          -3.1360     2.4880    -0.5550 h5         1 EXX       0.079800
     23 H2          -2.9630    -1.0410    -1.2960 h2         1 EXX       0.107700
     24 H3          -4.1190    -1.8730     0.6120 hc         1 EXX       0.084700
     25 H4          -2.8400    -1.0190     1.4860 hc         1 EXX       0.084700
     26 H5          -4.2380     0.9740     1.6940 h1         1 EXX       0.047700
     27 H6          -5.2900    -0.4970     3.0120 ho         1 EXX       0.517000
     28 H7          -6.1350    -0.2870    -0.3170 h1         1 EXX       0.089700
     29 H8          -6.7530     1.8410     0.7950 h1         1 EXX       0.030200
     30 H9          -5.2870     2.6010     0.1770 h1         1 EXX       0.030200
     31 H10         -7.1160     2.9080    -1.2410 ho         1 EXX       0.509000
@<TRIPOS>BOND
     1     1     2 1   
     2     2     3 ar  
     3     2    10 ar  
     4     3     4 1   
     5     3     5 ar  
     6     5     6 1   
     7     5     7 ar  
     8     7     8 1   
     9     7     9 ar  
    10     9    10 ar  
    11     9    13 1   
    12    10    11 1   
    13    11    12 2   
    14    12    13 1   
    15    12    22 1   
    16    13    14 1   
    17    14    15 1   
    18    14    16 1   
    19    14    23 1   
    20    15    19 1   
    21    16    17 1   
    22    16    24 1   
    23    16    25 1   
    24    17    18 1   
    25    17    19 1   
    26    17    26 1   
    27    18    27 1   
    28    19    20 1   
    29    19    28 1   
    30    20    21 1   
    31    20    29 1   
    32    20    30 1   
    33    21    31 1   
@<TRIPOS>SUBSTRUCTURE
     1 EXX         1 TEMP              0 ****  ****    0 ROOT
