@<TRIPOS>MOLECULE
EXY
   26    26     1     0     0
SMALL
No Charge or Current Charge


@<TRIPOS>ATOM
      1 N           25.8850   -42.8720     3.9630 n8         1 EXY      -0.887800
      2 CA          25.9160   -42.7560     5.4700 c3         1 EXY       0.017500
      3 C           24.7180   -43.4100     6.2970 c          1 EXY       0.930600
      4 O           24.9840   -44.0150     7.3310 o          1 EXY      -0.839800
      5 OXT         23.5850   -43.4040     5.8190 o          1 EXY      -0.839800
      6 CB          26.1680   -41.2800     5.8870 c3         1 EXY      -0.082400
      7 CG          25.0290   -40.2890     5.5360 c3         1 EXY      -0.074400
      8 CD          25.3390   -38.8400     5.9740 c3         1 EXY      -0.073400
      9 CE          24.2070   -37.8470     5.6300 c3         1 EXY      -0.070400
     10 CF          24.5200   -36.4200     6.0660 cx         1 EXY       0.071100
     11 CH          23.7030   -35.2740     5.5430 cx         1 EXY       0.040400
     12 OF          25.0420   -35.5260     5.0580 op         1 EXY      -0.400600
     13 H           25.0070   -42.4660     3.6220 hn         1 EXY       0.323800
     14 H2          26.6180   -42.2780     3.5630 hn         1 EXY       0.323800
     15 HA          26.8110   -43.3100     5.7850 h1         1 EXY       0.045700
     16 HB2         26.3410   -41.2500     6.9700 hc         1 EXY       0.021700
     17 HB3         27.0980   -40.9330     5.4190 hc         1 EXY       0.021700
     18 HG2         24.8480   -40.3030     4.4550 hc         1 EXY       0.046200
     19 HG3         24.1000   -40.6140     6.0210 hc         1 EXY       0.046200
     20 HD2         25.5180   -38.8210     7.0560 hc         1 EXY       0.034700
     21 HD3         26.2660   -38.5080     5.4900 hc         1 EXY       0.034700
     22 HE2         24.0190   -37.8750     4.5490 hc         1 EXY       0.049700
     23 HE3         23.2820   -38.1760     6.1190 hc         1 EXY       0.049700
     24 HF          24.9590   -36.3190     7.0590 h1         1 EXY       0.077700
     25 HH1         22.9050   -35.4710     4.8270 h1         1 EXY       0.066200
     26 HH2         23.5910   -34.3800     6.1560 h1         1 EXY       0.066200
@<TRIPOS>BOND
     1     1     2 1   
     2     1    13 1   
     3     1    14 1   
     4     2     3 1   
     5     2     6 1   
     6     2    15 1   
     7     3     4 1   
     8     3     5 1   
     9     6     7 1   
    10     6    16 1   
    11     6    17 1   
    12     7     8 1   
    13     7    18 1   
    14     7    19 1   
    15     8     9 1   
    16     8    20 1   
    17     8    21 1   
    18     9    10 1   
    19     9    22 1   
    20     9    23 1   
    21    10    11 1   
    22    10    12 1   
    23    10    24 1   
    24    11    12 1   
    25    11    25 1   
    26    11    26 1   
@<TRIPOS>SUBSTRUCTURE
     1 EXY         1 TEMP              0 ****  ****    0 ROOT
