@<TRIPOS>MOLECULE
EXY
   26    26     1     0     0
SMALL
bcc


@<TRIPOS>ATOM
      1 N           25.8340   -42.8080     3.9640 n8         1 EXY      -0.887800
      2 CA          25.9840   -42.6780     5.4060 c3         1 EXY       0.017500
      3 C           24.7910   -43.3210     6.1540 c          1 EXY       0.930600
      4 O           24.9700   -43.5480     7.3670 o          1 EXY      -0.839800
      5 OXT         23.7480   -43.5290     5.5010 o          1 EXY      -0.839800
      6 CB          26.1750   -41.2300     5.8880 c3         1 EXY      -0.082400
      7 CG          24.9970   -40.3010     5.6230 c3         1 EXY      -0.074400
      8 CD          25.3040   -38.8560     5.9950 c3         1 EXY      -0.073400
      9 CE          24.1290   -37.9170     5.7410 c3         1 EXY      -0.070400
     10 CF          24.4190   -36.5030     6.1530 cx         1 EXY       0.071100
     11 CH          23.9120   -35.3550     5.4090 cx         1 EXY       0.040400
     12 OF          25.2710   -35.7460     5.3020 op         1 EXY      -0.400600
     13 H           24.8610   -42.6620     3.7290 hn         1 EXY       0.323800
     14 H2          26.3640   -42.0880     3.4890 hn         1 EXY       0.323800
     15 HA          26.8860   -43.2260     5.7070 h1         1 EXY       0.045700
     16 HB2         26.3980   -41.2390     6.9580 hc         1 EXY       0.021700
     17 HB3         27.0670   -40.8190     5.4000 hc         1 EXY       0.021700
     18 HG2         24.7190   -40.3480     4.5650 hc         1 EXY       0.046200
     19 HG3         24.1200   -40.6360     6.1870 hc         1 EXY       0.046200
     20 HD2         25.5880   -38.8040     7.0510 hc         1 EXY       0.034700
     21 HD3         26.1740   -38.5130     5.4260 hc         1 EXY       0.034700
     22 HE2         23.8480   -37.9460     4.6830 hc         1 EXY       0.049700
     23 HE3         23.2560   -38.2620     6.3030 hc         1 EXY       0.049700
     24 HF          24.6200   -36.3640     7.2160 h1         1 EXY       0.077700
     25 HH1         23.2990   -35.5220     4.5260 h1         1 EXY       0.066200
     26 HH2         23.7230   -34.4150     5.9210 h1         1 EXY       0.066200
@<TRIPOS>BOND
     1     1     2 1   
     2     1    13 1   
     3     1    14 1   
     4     2     3 1   
     5     2     6 1   
     6     2    15 1   
     7     3     4 1   
     8     3     5 1   
     9     6     7 1   
    10     6    16 1   
    11     6    17 1   
    12     7     8 1   
    13     7    18 1   
    14     7    19 1   
    15     8     9 1   
    16     8    20 1   
    17     8    21 1   
    18     9    10 1   
    19     9    22 1   
    20     9    23 1   
    21    10    11 1   
    22    10    12 1   
    23    10    24 1   
    24    11    12 1   
    25    11    25 1   
    26    11    26 1   
@<TRIPOS>SUBSTRUCTURE
     1 EXY         1 TEMP              0 ****  ****    0 ROOT
