@<TRIPOS>MOLECULE
EXZ
   63    66     1     0     0
SMALL
No Charge or Current Charge


@<TRIPOS>ATOM
      1 N           11.8360    12.9980   -19.1430 n3         1 EXZ      -0.692600
      2 C           11.3050    15.4280   -23.8760 c3         1 EXZ       0.172600
      3 O           10.4420    14.3650   -24.3370 oh         1 EXZ      -0.702000
      4 C26         15.5040    13.8390   -25.4860 ca         1 EXZ       0.118000
      5 C25         15.1610    12.5110   -25.7850 ca         1 EXZ      -0.103000
      6 C24         13.9870    11.9590   -25.2500 ca         1 EXZ       0.118000
      7 Cl          13.5540    10.2950   -25.6180 cl         1 EXZ      -0.205500
      8 C23         13.1570    12.7320   -24.4220 ca         1 EXZ      -0.080000
      9 C27         14.6770    14.6150   -24.6560 ca         1 EXZ      -0.080000
     10 C22         13.4940    14.0690   -24.1170 ca         1 EXZ      -0.097300
     11 C1          12.6100    14.9130   -23.1900 c3         1 EXZ       0.219600
     12 O1          12.2510    14.1390   -22.0220 os         1 EXZ      -0.415000
     13 C2          13.3110    13.7300   -21.1140 c6         1 EXZ       0.172300
     14 C15         12.8460    12.5620   -20.1720 c6         1 EXZ       0.237800
     15 C16         12.4020    11.3550   -21.0230 ca         1 EXZ      -0.081300
     16 C21         13.3030    10.2980   -21.2690 ca         1 EXZ      -0.088000
     17 C20         12.9150     9.2040   -22.0610 ca         1 EXZ      -0.121000
     18 C19         11.6250     9.1560   -22.6150 ca         1 EXZ      -0.113000
     19 C18         10.7220    10.2060   -22.3770 ca         1 EXZ      -0.121000
     20 C17         11.1090    11.3010   -21.5860 ca         1 EXZ      -0.088000
     21 C5          12.3310    14.1650   -18.3530 c6         1 EXZ       0.163800
     22 C4          12.7470    15.3560   -19.2500 c6         1 EXZ      -0.072400
     23 C3          13.8240    14.9250   -20.2700 c6         1 EXZ      -0.108400
     24 C6          11.3870    11.8860   -18.2640 c3         1 EXZ       0.212100
     25 C7          10.2350    12.2700   -17.3270 ca         1 EXZ      -0.119300
     26 C12         10.3910    12.3710   -15.9210 ca         1 EXZ      -0.109300
     27 C13         11.7310    12.1030   -15.2410 c3         1 EXZ      -0.033800
     28 C11          9.2830    12.7270   -15.1230 ca         1 EXZ      -0.090000
     29 C10          8.0150    12.9870   -15.6920 ca         1 EXZ      -0.126600
     30 C14          6.8290    13.3700   -14.8180 c          1 EXZ       0.713600
     31 O3           6.9930    13.4540   -13.6080 o          1 EXZ      -0.721000
     32 O2           5.7500    13.5830   -15.3540 o          1 EXZ      -0.721000
     33 C9           7.8770    12.8810   -17.0940 ca         1 EXZ      -0.094000
     34 C8           8.9730    12.5270   -17.8950 ca         1 EXZ      -0.119000
     35 H2          11.5910    16.0690   -24.7200 h1         1 EXZ       0.027200
     36 H3          10.7670    16.0620   -23.1590 h1         1 EXZ       0.027200
     37 H4           9.6250    14.7910   -24.6840 ho         1 EXZ       0.501000
     38 H6          12.2520    12.2900   -24.0140 ha         1 EXZ       0.146000
     39 H7          14.9610    15.6410   -24.4320 ha         1 EXZ       0.146000
     40 H8          13.1750    15.8040   -22.8880 h1         1 EXZ       0.036700
     41 H9          14.1500    13.3480   -21.7140 h1         1 EXZ       0.034700
     42 H10         13.7450    12.2390   -19.6240 h1         1 EXZ       0.021700
     43 H11         14.3060    10.3260   -20.8500 ha         1 EXZ       0.124000
     44 H12         13.6160     8.3940   -22.2490 ha         1 EXZ       0.107500
     45 H13         11.3270     8.3100   -23.2310 ha         1 EXZ       0.104000
     46 H14          9.7240    10.1730   -22.8090 ha         1 EXZ       0.107500
     47 H15         10.4080    12.1140   -21.4120 ha         1 EXZ       0.124000
     48 H16         13.1960    13.8660   -17.7420 h1         1 EXZ       0.042200
     49 H17         11.5560    14.5180   -17.6580 h1         1 EXZ       0.042200
     50 H18         13.1290    16.1740   -18.6240 hc         1 EXZ       0.048700
     51 H19         11.8650    15.7490   -19.7750 hc         1 EXZ       0.048700
     52 H20         14.7350    14.6250   -19.7340 hc         1 EXZ       0.037200
     53 H21         14.1120    15.7720   -20.9050 hc         1 EXZ       0.037200
     54 H22         11.0300    11.0450   -18.8710 h1         1 EXZ       0.031200
     55 H23         12.2410    11.5010   -17.6920 h1         1 EXZ       0.031200
     56 H24         12.5160    12.7560   -15.6390 hc         1 EXZ       0.023700
     57 H25         11.6830    12.2770   -14.1600 hc         1 EXZ       0.023700
     58 H26         12.0470    11.0630   -15.3900 hc         1 EXZ       0.023700
     59 H27          9.4110    12.8020   -14.0450 ha         1 EXZ       0.124000
     60 H29          6.9170    13.0740   -17.5680 ha         1 EXZ       0.126000
     61 H30          8.8430    12.4550   -18.9730 ha         1 EXZ       0.095000
     62 Cl1         16.9770    14.5330   -26.1510 cl         1 EXZ      -0.205500
     63 H5          15.8030    11.9130   -26.4250 ha         1 EXZ       0.137000
@<TRIPOS>BOND
     1     1    14 1   
     2     1    21 1   
     3     1    24 1   
     4     2     3 1   
     5     2    11 1   
     6     2    35 1   
     7     2    36 1   
     8     3    37 1   
     9     4     5 ar  
    10     4     9 ar  
    11     4    62 1   
    12     5     6 ar  
    13     5    63 1   
    14     6     7 1   
    15     6     8 ar  
    16     8    10 ar  
    17     8    38 1   
    18     9    10 ar  
    19     9    39 1   
    20    10    11 1   
    21    11    12 1   
    22    11    40 1   
    23    12    13 1   
    24    13    14 1   
    25    13    23 1   
    26    13    41 1   
    27    14    15 1   
    28    14    42 1   
    29    15    16 ar  
    30    15    20 ar  
    31    16    17 ar  
    32    16    43 1   
    33    17    18 ar  
    34    17    44 1   
    35    18    19 ar  
    36    18    45 1   
    37    19    20 ar  
    38    19    46 1   
    39    20    47 1   
    40    21    22 1   
    41    21    48 1   
    42    21    49 1   
    43    22    23 1   
    44    22    50 1   
    45    22    51 1   
    46    23    52 1   
    47    23    53 1   
    48    24    25 1   
    49    24    54 1   
    50    24    55 1   
    51    25    26 ar  
    52    25    34 ar  
    53    26    27 1   
    54    26    28 ar  
    55    27    56 1   
    56    27    57 1   
    57    27    58 1   
    58    28    29 ar  
    59    28    59 1   
    60    29    30 1   
    61    29    33 ar  
    62    30    31 1   
    63    30    32 1   
    64    33    34 ar  
    65    33    60 1   
    66    34    61 1   
@<TRIPOS>SUBSTRUCTURE
     1 EXZ         1 TEMP              0 ****  ****    0 ROOT
