@<TRIPOS>MOLECULE
EXZ
   63    66     1     0     0
SMALL
abcg2


@<TRIPOS>ATOM
      1 N           11.9330    12.9710   -19.1340 n3         1 EXZ      -0.692600
      2 C           11.3190    15.2560   -23.5610 c3         1 EXZ       0.172600
      3 O           10.5460    14.1790   -24.0230 oh         1 EXZ      -0.702000
      4 C26         15.1420    14.0580   -25.7140 ca         1 EXZ       0.118000
      5 C25         14.9490    12.7160   -25.9940 ca         1 EXZ      -0.103000
      6 C24         13.9920    12.0360   -25.2570 ca         1 EXZ       0.118000
      7 CL          13.7340    10.3560   -25.5930 cl         1 EXZ      -0.205500
      8 C23         13.2400    12.6570   -24.2740 ca         1 EXZ      -0.080000
      9 C27         14.4090    14.7090   -24.7350 ca         1 EXZ      -0.080000
     10 C22         13.4500    14.0080   -24.0150 ca         1 EXZ      -0.097300
     11 C1          12.6290    14.7480   -22.9790 c3         1 EXZ       0.219600
     12 O1          12.3240    13.9590   -21.8610 os         1 EXZ      -0.415000
     13 C2          13.4080    13.6010   -21.0290 c6         1 EXZ       0.172300
     14 C15         12.9230    12.4840   -20.0860 c6         1 EXZ       0.237800
     15 C16         12.4140    11.3300   -20.9190 ca         1 EXZ      -0.081300
     16 C21         13.2810    10.2950   -21.2550 ca         1 EXZ      -0.088000
     17 C20         12.8710     9.2600   -22.0860 ca         1 EXZ      -0.121000
     18 C19         11.5780     9.2430   -22.5880 ca         1 EXZ      -0.113000
     19 C18         10.7000    10.2650   -22.2480 ca         1 EXZ      -0.121000
     20 C17         11.1160    11.3030   -21.4270 ca         1 EXZ      -0.088000
     21 C5          12.4240    14.1140   -18.3740 c6         1 EXZ       0.163800
     22 C4          12.8610    15.2640   -19.2600 c6         1 EXZ      -0.072400
     23 C3          13.9290    14.7860   -20.2270 c6         1 EXZ      -0.108400
     24 C6          11.5230    11.9180   -18.2100 c3         1 EXZ       0.212100
     25 C7          10.3250    12.3220   -17.3870 ca         1 EXZ      -0.119300
     26 C12         10.3590    12.4250   -15.9910 ca         1 EXZ      -0.109300
     27 C13         11.6090    12.1480   -15.2020 c3         1 EXZ      -0.033800
     28 C11          9.1960    12.8010   -15.3180 ca         1 EXZ      -0.090000
     29 C10          8.0050    13.0810   -15.9780 ca         1 EXZ      -0.126600
     30 C14          6.7550    13.4910   -15.2020 c          1 EXZ       0.713600
     31 O3           6.8590    13.5420   -13.9610 o          1 EXZ      -0.721000
     32 O2           5.7380    13.7400   -15.8790 o          1 EXZ      -0.721000
     33 C9           7.9890    12.9720   -17.3660 ca         1 EXZ      -0.094000
     34 C8           9.1320    12.6000   -18.0520 ca         1 EXZ      -0.119000
     35 H2          11.5660    15.9630   -24.3630 h1         1 EXZ       0.027200
     36 H3          10.8010    15.8280   -22.7790 h1         1 EXZ       0.027200
     37 H4           9.7360    14.5310   -24.4030 ho         1 EXZ       0.501000
     38 H6          12.5130    12.0920   -23.7070 ha         1 EXZ       0.146000
     39 H7          14.5880    15.7560   -24.5280 ha         1 EXZ       0.146000
     40 H8          13.1900    15.6480   -22.6910 h1         1 EXZ       0.036700
     41 H9          14.2270    13.1750   -21.6250 h1         1 EXZ       0.034700
     42 H10         13.8300    12.1390   -19.5550 h1         1 EXZ       0.021700
     43 H11         14.2920    10.3000   -20.8630 ha         1 EXZ       0.124000
     44 H12         13.5640     8.4670   -22.3390 ha         1 EXZ       0.107500
     45 H13         11.2550     8.4380   -23.2350 ha         1 EXZ       0.104000
     46 H14          9.6880    10.2590   -22.6330 ha         1 EXZ       0.107500
     47 H15         10.4220    12.0920   -21.1720 ha         1 EXZ       0.124000
     48 H16         13.2750    13.8180   -17.7340 h1         1 EXZ       0.042200
     49 H17         11.6290    14.4460   -17.7040 h1         1 EXZ       0.042200
     50 H18         13.2450    16.0700   -18.6320 hc         1 EXZ       0.048700
     51 H19         12.0030    15.6660   -19.8040 hc         1 EXZ       0.048700
     52 H20         14.8120    14.4540   -19.6710 hc         1 EXZ       0.037200
     53 H21         14.2720    15.5900   -20.8820 hc         1 EXZ       0.037200
     54 H22         11.2500    11.0330   -18.7880 h1         1 EXZ       0.031200
     55 H23         12.3620    11.6130   -17.5670 h1         1 EXZ       0.031200
     56 H24         12.4400    12.7840   -15.5130 hc         1 EXZ       0.023700
     57 H25         11.4420    12.3230   -14.1400 hc         1 EXZ       0.023700
     58 H26         11.9440    11.1140   -15.3130 hc         1 EXZ       0.023700
     59 H27          9.2250    12.8820   -14.2380 ha         1 EXZ       0.124000
     60 H29          7.0780    13.1790   -17.9110 ha         1 EXZ       0.126000
     61 H30          9.1020    12.5190   -19.1330 ha         1 EXZ       0.095000
     62 CL1         16.3420    14.9350   -26.6020 cl         1 EXZ      -0.205500
     63 H5          15.5290    12.2140   -26.7560 ha         1 EXZ       0.137000
@<TRIPOS>BOND
     1     1    14 1   
     2     1    21 1   
     3     1    24 1   
     4     2     3 1   
     5     2    11 1   
     6     2    35 1   
     7     2    36 1   
     8     3    37 1   
     9     4     5 ar  
    10     4     9 ar  
    11     4    62 1   
    12     5     6 ar  
    13     5    63 1   
    14     6     7 1   
    15     6     8 ar  
    16     8    10 ar  
    17     8    38 1   
    18     9    10 ar  
    19     9    39 1   
    20    10    11 1   
    21    11    12 1   
    22    11    40 1   
    23    12    13 1   
    24    13    14 1   
    25    13    23 1   
    26    13    41 1   
    27    14    15 1   
    28    14    42 1   
    29    15    16 ar  
    30    15    20 ar  
    31    16    17 ar  
    32    16    43 1   
    33    17    18 ar  
    34    17    44 1   
    35    18    19 ar  
    36    18    45 1   
    37    19    20 ar  
    38    19    46 1   
    39    20    47 1   
    40    21    22 1   
    41    21    48 1   
    42    21    49 1   
    43    22    23 1   
    44    22    50 1   
    45    22    51 1   
    46    23    52 1   
    47    23    53 1   
    48    24    25 1   
    49    24    54 1   
    50    24    55 1   
    51    25    26 ar  
    52    25    34 ar  
    53    26    27 1   
    54    26    28 ar  
    55    27    56 1   
    56    27    57 1   
    57    27    58 1   
    58    28    29 ar  
    59    28    59 1   
    60    29    30 1   
    61    29    33 ar  
    62    30    31 1   
    63    30    32 1   
    64    33    34 ar  
    65    33    60 1   
    66    34    61 1   
@<TRIPOS>SUBSTRUCTURE
     1 EXZ         1 TEMP              0 ****  ****    0 ROOT
