@<TRIPOS>MOLECULE
EY0
   59    62     1     0     0
SMALL
No Charge or Current Charge


@<TRIPOS>ATOM
      1 C2         108.8550   110.8610   106.3690 cc         1 EY0      -0.003400
      2 C3         109.5250   111.8780   106.9960 cd         1 EY0      -0.258600
      3 C4         108.9890   112.4430   108.2630 c          1 EY0       0.614600
      4 C6         107.0310   110.9450   107.9790 c          1 EY0       0.616000
      5 C13        106.4450   109.6560   104.6680 c3         1 EY0      -0.110600
      6 C14        107.5730   107.9080   106.1960 c3         1 EY0      -0.110600
      7 C17        112.9600   109.9810   104.3570 cc         1 EY0      -0.173300
      8 C18        113.6110   109.3610   105.3830 cd         1 EY0      -0.107300
      9 C21        113.0430   109.0920   103.2510 cc         1 EY0       0.136300
     10 C22        112.4400   109.3820   101.8770 c3         1 EY0       0.290700
     11 C26        113.8390   109.8190   106.8010 c3         1 EY0      -0.047800
     12 C30        110.8740   116.7170   107.6190 c5         1 EY0       0.089600
     13 C31        109.8120   116.5690   106.4820 c5         1 EY0       0.155000
     14 C32        109.8310   115.0160   106.2610 c5         1 EY0       0.066000
     15 C35        110.1980   117.3510   105.2040 c3         1 EY0      -0.080100
     16 C8         111.0840   111.3600   105.3110 cc         1 EY0      -0.193300
     17 C9         110.7790   112.2210   106.3550 cd         1 EY0      -0.090600
     18 F23        112.6250   108.3600   101.0060 f          1 EY0      -0.108667
     19 F24        111.1050   109.5930   101.9470 f          1 EY0      -0.108667
     20 F25        112.9920   110.4790   101.3100 f          1 EY0      -0.108667
     21 N1         107.6180   110.3800   106.8160 n          1 EY0      -0.273000
     22 N19        114.0560   108.1430   104.8620 na         1 EY0       0.014800
     23 N20        113.6990   107.9770   103.5290 nd         1 EY0      -0.463800
     24 N28        111.1280   114.6260   106.8700 n          1 EY0      -0.283300
     25 N5         107.7330   111.9590   108.6530 n          1 EY0      -0.366400
     26 O10        109.6050   113.2550   108.9370 o          1 EY0      -0.525000
     27 O11        105.9480   110.5610   108.4050 o          1 EY0      -0.551000
     28 O29        111.8760   115.7490   107.2750 os         1 EY0      -0.207100
     29 O33        112.9220   113.1870   106.8840 o          1 EY0      -0.558100
     30 S7         109.7780   110.2280   105.0110 ss         1 EY0       0.262000
     31 H2         105.9520   110.6360   104.6580 hc         1 EY0       0.051867
     32 H3         107.2900   109.6880   103.9740 hc         1 EY0       0.051867
     33 H4         105.7310   108.9180   104.2830 hc         1 EY0       0.051867
     34 H5         107.8380   107.6820   107.2360 hc         1 EY0       0.051867
     35 H6         106.9010   107.1170   105.8410 hc         1 EY0       0.051867
     36 H7         108.4840   107.8620   105.5920 hc         1 EY0       0.051867
     37 H13        114.4540   110.7260   106.8250 hc         1 EY0       0.067700
     38 H14        112.8880   110.0480   107.2960 hc         1 EY0       0.067700
     39 H15        114.3480   109.0540   107.3980 hc         1 EY0       0.067700
     40 H16        111.3220   117.7180   107.6670 h1         1 EY0       0.067200
     41 H17        110.4620   116.4610   108.6040 h1         1 EY0       0.067200
     42 H18        108.9820   114.5380   106.7600 h1         1 EY0       0.065200
     43 H19        109.7930   114.7490   105.1960 h1         1 EY0       0.065200
     44 H20        111.1800   117.0390   104.8270 hc         1 EY0       0.053367
     45 H21        109.4680   117.1870   104.4030 hc         1 EY0       0.053367
     46 H22        110.2450   118.4300   105.3980 hc         1 EY0       0.053367
     47 H23        114.5820   107.4300   105.3630 hn         1 EY0       0.380000
     48 C12        106.8740   109.2840   106.1060 c3         1 EY0       0.108700
     49 C15        107.1200   112.5240   109.8890 c3         1 EY0       0.083300
     50 C16        112.2780   111.3320   104.3840 c3         1 EY0       0.071200
     51 C27        111.7120   113.3380   106.7480 c          1 EY0       0.662700
     52 O34        108.5230   117.0390   106.8890 oh         1 EY0      -0.637000
     53 H1         105.9200   109.1250   106.6240 h1         1 EY0       0.098700
     54 H8         107.5000   113.5320   110.1000 h1         1 EY0       0.059367
     55 H9         106.0310   112.6040   109.7810 h1         1 EY0       0.059367
     56 H10        107.3470   111.8720   110.7420 h1         1 EY0       0.059367
     57 H11        113.0190   112.0880   104.6580 hc         1 EY0       0.074700
     58 H12        111.9460   111.6280   103.3840 hc         1 EY0       0.074700
     59 H24        108.2970   116.5860   107.7320 ho         1 EY0       0.450000
@<TRIPOS>BOND
     1     1     2 2   
     2     1    21 1   
     3     1    30 1   
     4     2     3 1   
     5     2    17 1   
     6     3    25 1   
     7     3    26 2   
     8     4    21 1   
     9     4    25 1   
    10     4    27 2   
    11     5    31 1   
    12     5    32 1   
    13     5    33 1   
    14     5    48 1   
    15     6    34 1   
    16     6    35 1   
    17     6    36 1   
    18     6    48 1   
    19     7     8 2   
    20     7     9 1   
    21     7    50 1   
    22     8    11 1   
    23     8    22 1   
    24     9    10 1   
    25     9    23 2   
    26    10    18 1   
    27    10    19 1   
    28    10    20 1   
    29    11    37 1   
    30    11    38 1   
    31    11    39 1   
    32    12    13 1   
    33    12    28 1   
    34    12    40 1   
    35    12    41 1   
    36    13    14 1   
    37    13    15 1   
    38    13    52 1   
    39    14    24 1   
    40    14    42 1   
    41    14    43 1   
    42    15    44 1   
    43    15    45 1   
    44    15    46 1   
    45    16    17 2   
    46    16    30 1   
    47    16    50 1   
    48    17    51 1   
    49    21    48 1   
    50    22    23 1   
    51    22    47 1   
    52    24    28 1   
    53    24    51 1   
    54    25    49 1   
    55    29    51 2   
    56    48    53 1   
    57    49    54 1   
    58    49    55 1   
    59    49    56 1   
    60    50    57 1   
    61    50    58 1   
    62    52    59 1   
@<TRIPOS>SUBSTRUCTURE
     1 EY0         1 TEMP              0 ****  ****    0 ROOT
