@<TRIPOS>MOLECULE
EY0
   59    62     1     0     0
SMALL
bcc


@<TRIPOS>ATOM
      1 C2         108.7410   110.7400   106.6120 cc         1 EY0       0.141500
      2 C3         109.3200   111.7640   107.3130 cd         1 EY0      -0.258600
      3 C4         108.7040   112.2660   108.5090 c          1 EY0       0.757100
      4 C6         106.9560   110.5620   108.1600 c          1 EY0       0.825500
      5 C13        106.4470   109.5320   104.8730 c3         1 EY0      -0.110600
      6 C14        107.8220   107.8030   106.1470 c3         1 EY0      -0.110600
      7 C17        112.7270   110.4710   104.3720 cc         1 EY0      -0.238600
      8 C18        113.5370   109.7520   105.2300 cd         1 EY0      -0.056600
      9 C21        112.6900   109.6830   103.2070 cc         1 EY0       0.201600
     10 C22        111.9620   109.9720   101.9460 c3         1 EY0       0.654600
     11 C26        113.9860   110.0340   106.6170 c3         1 EY0      -0.047800
     12 C30        111.0950   116.7280   107.2610 c5         1 EY0       0.066400
     13 C31        110.2650   116.4870   105.9960 c5         1 EY0       0.131800
     14 C32        109.9380   114.9950   106.1880 c5         1 EY0       0.066000
     15 C35        111.0840   116.7130   104.7360 c3         1 EY0      -0.080100
     16 C8         110.8500   111.5670   105.5860 cc         1 EY0      -0.048400
     17 C9         110.5310   112.2330   106.7190 cd         1 EY0      -0.090600
     18 F23        112.0590   108.9770   101.0670 f          1 EY0      -0.229967
     19 F24        110.6550   110.1830   102.1730 f          1 EY0      -0.229967
     20 F25        112.4220   111.0820   101.3480 f          1 EY0      -0.229967
     21 N1         107.5820   110.1360   107.0000 n          1 EY0      -0.340000
     22 N19        113.9060   108.6530   104.5460 na         1 EY0       0.014400
     23 N20        113.4090   108.5860   103.3250 nd         1 EY0      -0.463800
     24 N28        111.1140   114.5160   106.8880 n          1 EY0      -0.350300
     25 N5         107.5380   111.6030   108.8640 n          1 EY0      -0.500400
     26 O10        109.1520   113.1920   109.1610 o          1 EY0      -0.600500
     27 O11        105.9280   110.0540   108.5590 o          1 EY0      -0.626500
     28 O29        111.8810   115.5560   107.3970 os         1 EY0      -0.183900
     29 O33        112.3370   113.0190   108.0590 o          1 EY0      -0.558100
     30 S7         109.6720   110.3410   105.2190 ss         1 EY0      -0.027800
     31 H2         105.7980   110.4000   104.9830 hc         1 EY0       0.051867
     32 H3         107.2490   109.7880   104.1810 hc         1 EY0       0.051867
     33 H4         105.8650   108.7370   104.4080 hc         1 EY0       0.051867
     34 H5         108.2120   107.5310   107.1270 hc         1 EY0       0.051867
     35 H6         107.2110   106.9740   105.7900 hc         1 EY0       0.051867
     36 H7         108.6580   107.9000   105.4560 hc         1 EY0       0.051867
     37 H13        115.0380   110.3230   106.6390 hc         1 EY0       0.067700
     38 H14        113.4090   110.8470   107.0520 hc         1 EY0       0.067700
     39 H15        113.8670   109.1610   107.2580 hc         1 EY0       0.067700
     40 H16        111.7780   117.5730   107.1840 h1         1 EY0       0.067200
     41 H17        110.4440   116.8670   108.1330 h1         1 EY0       0.067200
     42 H18        109.0390   114.8750   106.8000 h1         1 EY0       0.065200
     43 H19        109.7950   114.4680   105.2450 h1         1 EY0       0.065200
     44 H20        111.9820   116.0950   104.7320 hc         1 EY0       0.053367
     45 H21        110.5020   116.4600   103.8490 hc         1 EY0       0.053367
     46 H22        111.3950   117.7560   104.6590 hc         1 EY0       0.053367
     47 H23        114.5040   107.9100   104.8760 hn         1 EY0       0.329700
     48 C12        106.9440   109.0450   106.2280 c3         1 EY0       0.108700
     49 C15        106.8340   112.0110   110.0750 c3         1 EY0       0.083300
     50 C16        112.0240   111.7570   104.6750 c3         1 EY0       0.071200
     51 C27        111.4060   113.2870   107.3180 c          1 EY0       0.729700
     52 O34        109.1300   117.2960   105.9100 oh         1 EY0      -0.574800
     53 H1         106.0710   108.7790   106.8150 h1         1 EY0       0.098700
     54 H8         107.3680   112.8380   110.5250 h1         1 EY0       0.059367
     55 H9         105.8210   112.3300   109.8400 h1         1 EY0       0.059367
     56 H10        106.7920   111.1890   110.7870 h1         1 EY0       0.059367
     57 H11        112.7180   112.4530   105.1510 hc         1 EY0       0.074700
     58 H12        111.7020   112.2500   103.7550 hc         1 EY0       0.074700
     59 H24        108.5950   117.1940   106.7060 ho         1 EY0       0.411000
@<TRIPOS>BOND
     1     1     2 2   
     2     1    21 1   
     3     1    30 1   
     4     2     3 1   
     5     2    17 1   
     6     3    25 1   
     7     3    26 2   
     8     4    21 1   
     9     4    25 1   
    10     4    27 2   
    11     5    31 1   
    12     5    32 1   
    13     5    33 1   
    14     5    48 1   
    15     6    34 1   
    16     6    35 1   
    17     6    36 1   
    18     6    48 1   
    19     7     8 2   
    20     7     9 1   
    21     7    50 1   
    22     8    11 1   
    23     8    22 1   
    24     9    10 1   
    25     9    23 2   
    26    10    18 1   
    27    10    19 1   
    28    10    20 1   
    29    11    37 1   
    30    11    38 1   
    31    11    39 1   
    32    12    13 1   
    33    12    28 1   
    34    12    40 1   
    35    12    41 1   
    36    13    14 1   
    37    13    15 1   
    38    13    52 1   
    39    14    24 1   
    40    14    42 1   
    41    14    43 1   
    42    15    44 1   
    43    15    45 1   
    44    15    46 1   
    45    16    17 2   
    46    16    30 1   
    47    16    50 1   
    48    17    51 1   
    49    21    48 1   
    50    22    23 1   
    51    22    47 1   
    52    24    28 1   
    53    24    51 1   
    54    25    49 1   
    55    29    51 2   
    56    48    53 1   
    57    49    54 1   
    58    49    55 1   
    59    49    56 1   
    60    50    57 1   
    61    50    58 1   
    62    52    59 1   
@<TRIPOS>SUBSTRUCTURE
     1 EY0         1 TEMP              0 ****  ****    0 ROOT
