@<TRIPOS>MOLECULE
EY1
   50    54     1     0     0
SMALL
abcg2


@<TRIPOS>ATOM
      1 C13        -36.0950   -10.4820    15.4320 ca         1 EY1      -0.083500
      2 C15        -37.5160   -11.5280    13.6260 c6         1 EY1       0.006300
      3 C17        -37.1970   -13.8660    12.7190 c6         1 EY1      -0.059700
      4 C20        -38.1970   -11.9190    10.7690 c6         1 EY1      -0.068067
      5 C21        -36.7450   -11.8950    11.2480 c6         1 EY1      -0.059700
      6 C22        -36.2990   -13.3130    11.6090 c6         1 EY1      -0.068067
      7 C24        -38.9660   -11.5720    13.1210 c6         1 EY1      -0.061733
      8 C26        -38.2270    -9.2260    16.6130 ca         1 EY1      -0.146500
      9 O01        -34.6300    -8.1160    18.6810 o          1 EY1      -0.563100
     10 C02        -35.7770    -7.8390    18.9750 c          1 EY1       0.625100
     11 C03        -36.0380    -7.0030    20.2210 c3         1 EY1      -0.041400
     12 S04        -37.5700    -6.0480    20.2720 ss         1 EY1      -0.334300
     13 C05        -37.2230    -4.9330    18.9790 cc         1 EY1       0.463800
     14 N06        -36.1730    -4.9380    18.2080 nd         1 EY1      -0.353000
     15 N07        -36.3090    -3.9050    17.3320 nd         1 EY1      -0.341000
     16 C08        -37.4320    -3.3100    17.5970 cc         1 EY1       0.378400
     17 N09        -38.0500    -3.9240    18.6330 na         1 EY1      -0.491000
     18 C11        -36.9620    -9.0660    17.1720 ca         1 EY1      -0.018000
     19 C12        -35.8830    -9.7090    16.5630 ca         1 EY1      -0.146500
     20 C14        -37.3550   -10.6550    14.8580 ca         1 EY1      -0.088300
     21 C16        -37.0820   -12.9710    13.9540 c6         1 EY1      -0.061733
     22 C18        -38.6480   -13.8900    12.2390 c6         1 EY1      -0.068067
     23 C19        -39.0860   -12.4690    11.8860 c6         1 EY1      -0.059700
     24 C23        -36.6330   -10.9940    12.4800 c6         1 EY1      -0.061733
     25 C25        -38.4160   -10.0040    15.4820 ca         1 EY1      -0.083500
     26 H131       -35.2330   -10.9660    14.9900 ha         1 EY1       0.112500
     27 H171       -36.8770   -14.8800    12.9810 hc         1 EY1       0.048033
     28 H202       -38.5200   -10.9090    10.4960 hc         1 EY1       0.039033
     29 H201       -38.2900   -12.5390     9.8700 hc         1 EY1       0.039033
     30 H211       -36.1030   -11.4970    10.4570 hc         1 EY1       0.048033
     31 H221       -36.3490   -13.9590    10.7270 hc         1 EY1       0.039033
     32 H222       -35.2550   -13.3080    11.9380 hc         1 EY1       0.039033
     33 H242       -39.3080   -10.5610    12.8730 hc         1 EY1       0.042033
     34 H241       -39.6290   -11.9470    13.9080 hc         1 EY1       0.042033
     35 H261       -39.0810    -8.7350    17.0650 ha         1 EY1       0.126500
     36 H032       -36.1010    -7.6730    21.0820 h1         1 EY1       0.110700
     37 H031       -35.1870    -6.3420    20.3760 h1         1 EY1       0.110700
     38 H081       -37.8390    -2.4520    17.0870 h5         1 EY1       0.068100
     39 H091       -38.9330    -3.6680    19.0500 hn         1 EY1       0.369000
     40 H101       -37.7610    -7.9570    18.6880 hn         1 EY1       0.158000
     41 H121       -34.8840    -9.6200    16.9580 ha         1 EY1       0.126500
     42 H162       -37.7050   -13.3600    14.7660 hc         1 EY1       0.042033
     43 H161       -36.0510   -12.9800    14.3200 hc         1 EY1       0.042033
     44 H181       -39.2950   -14.3020    13.0190 hc         1 EY1       0.039033
     45 H182       -38.7470   -14.5440    11.3670 hc         1 EY1       0.039033
     46 H191       -40.1290   -12.4760    11.5550 hc         1 EY1       0.048033
     47 H231       -35.5890   -10.9350    12.8000 hc         1 EY1       0.042033
     48 H232       -36.9440    -9.9740    12.2290 hc         1 EY1       0.042033
     49 H251       -39.4220   -10.0900    15.0950 ha         1 EY1       0.112500
     50 N10        -36.8730    -8.2740    18.3230 ns         1 EY1      -0.140000
@<TRIPOS>BOND
     1     1    19 ar  
     2     1    20 ar  
     3     1    26 1   
     4     2     7 1   
     5     2    20 1   
     6     2    21 1   
     7     2    24 1   
     8     3     6 1   
     9     3    21 1   
    10     3    22 1   
    11     3    27 1   
    12     4     5 1   
    13     4    23 1   
    14     4    28 1   
    15     4    29 1   
    16     5     6 1   
    17     5    24 1   
    18     5    30 1   
    19     6    31 1   
    20     6    32 1   
    21     7    23 1   
    22     7    33 1   
    23     7    34 1   
    24     8    18 ar  
    25     8    25 ar  
    26     8    35 1   
    27     9    10 2   
    28    10    11 1   
    29    10    50 1   
    30    11    12 1   
    31    11    36 1   
    32    11    37 1   
    33    12    13 1   
    34    13    14 2   
    35    13    17 1   
    36    14    15 1   
    37    15    16 2   
    38    16    17 1   
    39    16    38 1   
    40    17    39 1   
    41    18    19 ar  
    42    18    50 1   
    43    19    41 1   
    44    20    25 ar  
    45    21    42 1   
    46    21    43 1   
    47    22    23 1   
    48    22    44 1   
    49    22    45 1   
    50    23    46 1   
    51    24    47 1   
    52    24    48 1   
    53    25    49 1   
    54    40    50 1   
@<TRIPOS>SUBSTRUCTURE
     1 EY1         1 TEMP              0 ****  ****    0 ROOT
