@<TRIPOS>MOLECULE
EY1
   50    54     1     0     0
SMALL
No Charge or Current Charge


@<TRIPOS>ATOM
      1 C13        -36.1850   -10.3710    15.4120 ca         1 EY1      -0.083500
      2 C15        -37.5780   -11.5960    13.6360 c6         1 EY1       0.006300
      3 C17        -36.9010   -13.8350    12.5530 c6         1 EY1      -0.059700
      4 C20        -38.4350   -12.0110    10.7680 c6         1 EY1      -0.068067
      5 C21        -36.9540   -11.7240    11.1380 c6         1 EY1      -0.059700
      6 C22        -36.2130   -13.0680    11.3880 c6         1 EY1      -0.068067
      7 C24        -39.0610   -11.9090    13.2240 c6         1 EY1      -0.061733
      8 C26        -38.4430    -9.4930    16.8030 ca         1 EY1      -0.146500
      9 O01        -34.8550    -8.0470    18.9290 o          1 EY1      -0.563100
     10 C02        -36.0350    -7.8490    19.1960 c          1 EY1       0.625100
     11 C03        -36.4560    -7.0140    20.4140 c3         1 EY1      -0.041400
     12 S04        -37.7620    -5.7330    20.0320 ss         1 EY1      -0.334300
     13 C05        -36.9440    -4.6560    18.9110 cc         1 EY1       0.463800
     14 N06        -35.6850    -4.7190    18.5430 nd         1 EY1      -0.353000
     15 N07        -35.4940    -3.6730    17.6650 nd         1 EY1      -0.341000
     16 C08        -36.6430    -3.0160    17.5390 cc         1 EY1       0.378400
     17 N09        -37.5890    -3.6210    18.3270 na         1 EY1      -0.491000
     18 C11        -37.1700    -9.1430    17.2810 ca         1 EY1      -0.018000
     19 C12        -36.0370    -9.5900    16.5710 ca         1 EY1      -0.146500
     20 C14        -37.4620   -10.7290    14.9250 ca         1 EY1      -0.088300
     21 C16        -36.8470   -12.9680    13.8450 c6         1 EY1      -0.061733
     22 C18        -38.3830   -14.1200    12.1810 c6         1 EY1      -0.068067
     23 C19        -39.1220   -12.7750    11.9330 c6         1 EY1      -0.059700
     24 C23        -36.9000   -10.8570    12.4300 c6         1 EY1      -0.061733
     25 C25        -38.5930   -10.2740    15.6440 ca         1 EY1      -0.083500
     26 H131       -35.2870   -10.6970    14.8930 ha         1 EY1       0.112500
     27 H171       -36.3780   -14.7860    12.7280 hc         1 EY1       0.048033
     28 H202       -38.9660   -11.0700    10.5660 hc         1 EY1       0.039033
     29 H201       -38.4880   -12.6010     9.8430 hc         1 EY1       0.039033
     30 H211       -36.4670   -11.1840    10.3140 hc         1 EY1       0.048033
     31 H221       -36.2190   -13.6800    10.4750 hc         1 EY1       0.039033
     32 H222       -35.1570   -12.8810    11.6290 hc         1 EY1       0.039033
     33 H242       -39.6140   -10.9740    13.0550 hc         1 EY1       0.042033
     34 H241       -39.5780   -12.4380    14.0370 hc         1 EY1       0.042033
     35 H261       -39.3320    -9.1580    17.3330 ha         1 EY1       0.126500
     36 H032       -36.8450    -7.7070    21.1690 h1         1 EY1       0.110700
     37 H031       -35.5620    -6.5240    20.8180 h1         1 EY1       0.110700
     38 H081       -36.8380    -2.1430    16.9270 h5         1 EY1       0.068100
     39 H091       -38.5540    -3.3540    18.4460 hn         1 EY1       0.369000
     40 H101       -38.0090    -8.0870    18.8250 hn         1 EY1       0.158000
     41 H121       -35.0320    -9.3450    16.8960 ha         1 EY1       0.126500
     42 H162       -37.3080   -13.5130    14.6810 hc         1 EY1       0.042033
     43 H161       -35.7980   -12.8120    14.1270 hc         1 EY1       0.042033
     44 H181       -38.8760   -14.6820    12.9870 hc         1 EY1       0.039033
     45 H182       -38.4350   -14.7530    11.2850 hc         1 EY1       0.039033
     46 H191       -40.1700   -12.9750    11.6740 hc         1 EY1       0.048033
     47 H231       -35.8520   -10.6190    12.6570 hc         1 EY1       0.042033
     48 H232       -37.3980    -9.8930    12.2540 hc         1 EY1       0.042033
     49 H251       -39.6030   -10.5110    15.3250 ha         1 EY1       0.112500
     50 N10        -37.1020    -8.3480    18.4590 ns         1 EY1      -0.140000
@<TRIPOS>BOND
     1     1    19 ar  
     2     1    20 ar  
     3     1    26 1   
     4     2     7 1   
     5     2    20 1   
     6     2    21 1   
     7     2    24 1   
     8     3     6 1   
     9     3    21 1   
    10     3    22 1   
    11     3    27 1   
    12     4     5 1   
    13     4    23 1   
    14     4    28 1   
    15     4    29 1   
    16     5     6 1   
    17     5    24 1   
    18     5    30 1   
    19     6    31 1   
    20     6    32 1   
    21     7    23 1   
    22     7    33 1   
    23     7    34 1   
    24     8    18 ar  
    25     8    25 ar  
    26     8    35 1   
    27     9    10 2   
    28    10    11 1   
    29    10    50 1   
    30    11    12 1   
    31    11    36 1   
    32    11    37 1   
    33    12    13 1   
    34    13    14 2   
    35    13    17 1   
    36    14    15 1   
    37    15    16 2   
    38    16    17 1   
    39    16    38 1   
    40    17    39 1   
    41    18    19 ar  
    42    18    50 1   
    43    19    41 1   
    44    20    25 ar  
    45    21    42 1   
    46    21    43 1   
    47    22    23 1   
    48    22    44 1   
    49    22    45 1   
    50    23    46 1   
    51    24    47 1   
    52    24    48 1   
    53    25    49 1   
    54    40    50 1   
@<TRIPOS>SUBSTRUCTURE
     1 EY1         1 TEMP              0 ****  ****    0 ROOT
