@<TRIPOS>MOLECULE
EY2
   37    39     1     0     0
SMALL
No Charge or Current Charge


@<TRIPOS>ATOM
      1 C01         -0.5590     1.7080    -0.4540 ca         1 EY2      -0.053000
      2 C02         -1.9680     1.7750    -0.3640 ca         1 EY2      -0.102000
      3 C03         -2.7270     0.6230    -0.0380 ca         1 EY2       0.017100
      4 C04         -2.0950    -0.6150     0.2050 ca         1 EY2      -0.102000
      5 C05         -0.6980    -0.6480     0.1120 ca         1 EY2      -0.002200
      6 C06          0.0670     0.4710    -0.2100 cp         1 EY2      -0.088000
      7 N01          0.2290    -1.6890     0.2840 na         1 EY2      -0.074600
      8 C07          1.4740     0.0770    -0.2330 cp         1 EY2      -0.086000
      9 C08          1.5560    -1.2800     0.0740 ca         1 EY2       0.038800
     10 C09          2.6440     0.8090    -0.5070 ca         1 EY2      -0.010000
     11 C10          2.7690    -1.9760     0.1220 ca         1 EY2      -0.124000
     12 C11          3.9460    -1.2480    -0.1500 ca         1 EY2      -0.065000
     13 C12          3.8880     0.1370    -0.4610 ca         1 EY2      -0.242300
     14 C13         -0.1540    -3.0750     0.6050 c3         1 EY2       0.072600
     15 C14         -0.4250    -3.9230    -0.6510 c3         1 EY2      -0.120100
     16 C15          5.1620     0.8970    -0.7450 c3         1 EY2       0.170900
     17 N02          5.7010     1.3860     0.5790 ny         1 EY2      -0.822000
     18 C16          7.0070     2.1910     0.5460 c3         1 EY2       0.072900
     19 Br1         -4.6320     0.7460     0.0720 br         1 EY2      -0.061100
     20 H1           0.0250     2.5890    -0.7070 ha         1 EY2       0.120000
     21 H2          -2.4740     2.7200    -0.5480 ha         1 EY2       0.143000
     22 H3          -2.6730    -1.5020     0.4520 ha         1 EY2       0.144000
     23 H4           2.5860     1.8680    -0.7490 ha         1 EY2       0.119000
     24 H5           2.8080    -3.0370     0.3580 ha         1 EY2       0.140000
     25 H6           4.9070    -1.7590    -0.1210 ha         1 EY2       0.113000
     26 H7           0.6470    -3.5390     1.1930 h1         1 EY2       0.066700
     27 H8          -1.0520    -3.0590     1.2350 h1         1 EY2       0.066700
     28 H9          -1.2420    -3.4910    -1.2410 hc         1 EY2       0.055367
     29 H10          0.4700    -3.9740    -1.2840 hc         1 EY2       0.055367
     30 H11         -0.7060    -4.9450    -0.3690 hc         1 EY2       0.055367
     31 H12          5.9060     0.2530    -1.2240 hx         1 EY2       0.097200
     32 H13          4.9740     1.7540    -1.3990 hx         1 EY2       0.097200
     33 H14          4.9570     1.9390     1.0550 hn         1 EY2       0.502000
     34 H15          5.8060     0.5680     1.2150 hn         1 EY2       0.502000
     35 H16          7.8050     1.5810     0.1120 hx         1 EY2       0.100367
     36 H17          6.8730     3.0880    -0.0640 hx         1 EY2       0.100367
     37 H18          7.2920     2.4850     1.5610 hx         1 EY2       0.100367
@<TRIPOS>BOND
     1     1     2 ar  
     2     1     6 ar  
     3     1    20 1   
     4     2     3 ar  
     5     2    21 1   
     6     3     4 ar  
     7     3    19 1   
     8     4     5 ar  
     9     4    22 1   
    10     5     6 ar  
    11     5     7 1   
    12     6     8 1   
    13     7     9 1   
    14     7    14 1   
    15     8     9 ar  
    16     8    10 ar  
    17     9    11 ar  
    18    10    13 ar  
    19    10    23 1   
    20    11    12 ar  
    21    11    24 1   
    22    12    13 ar  
    23    12    25 1   
    24    13    16 1   
    25    14    15 1   
    26    14    26 1   
    27    14    27 1   
    28    15    28 1   
    29    15    29 1   
    30    15    30 1   
    31    16    17 1   
    32    16    31 1   
    33    16    32 1   
    34    17    18 1   
    35    17    33 1   
    36    17    34 1   
    37    18    35 1   
    38    18    36 1   
    39    18    37 1   
@<TRIPOS>SUBSTRUCTURE
     1 EY2         1 TEMP              0 ****  ****    0 ROOT
