@<TRIPOS>MOLECULE
EY2
   37    39     1     0     0
SMALL
bcc


@<TRIPOS>ATOM
      1 C01         -0.6030     1.7010    -0.4590 ca         1 EY2      -0.071000
      2 C02         -1.9840     1.7210    -0.3760 ca         1 EY2      -0.120000
      3 C03         -2.6720     0.5500    -0.0430 ca         1 EY2       0.017100
      4 C04         -2.0330    -0.6500     0.2110 ca         1 EY2      -0.120000
      5 C05         -0.6440    -0.6470     0.1240 ca         1 EY2      -0.002200
      6 C06          0.0790     0.5150    -0.2100 cp         1 EY2      -0.088000
      7 N01          0.2310    -1.6840     0.3320 na         1 EY2      -0.045300
      8 C07          1.4670     0.1390    -0.2160 cp         1 EY2      -0.086000
      9 C08          1.5070    -1.2320     0.1130 ca         1 EY2       0.038800
     10 C09          2.6460     0.8260    -0.4730 ca         1 EY2      -0.028000
     11 C10          2.7130    -1.9260     0.1730 ca         1 EY2      -0.142000
     12 C11          3.8720    -1.2220    -0.0890 ca         1 EY2      -0.083000
     13 C12          3.8530     0.1450    -0.4090 ca         1 EY2      -0.242300
     14 C13         -0.1440    -3.0610     0.5790 c3         1 EY2       0.043300
     15 C14         -0.3970    -3.8370    -0.7040 c3         1 EY2      -0.120100
     16 C15          5.1380     0.8700    -0.6580 c3         1 EY2       0.199100
     17 N02          5.7120     1.3950     0.6200 ny         1 EY2      -0.768000
     18 C16          6.9940     2.1150     0.4480 c3         1 EY2       0.101100
     19 BR1         -4.5580     0.6080     0.0560 br         1 EY2      -0.061100
     20 H1          -0.0690     2.6060    -0.7210 ha         1 EY2       0.138000
     21 H2          -2.5220     2.6380    -0.5740 ha         1 EY2       0.161000
     22 H3          -2.5840    -1.5470     0.4630 ha         1 EY2       0.162000
     23 H4           2.6250     1.8790    -0.7300 ha         1 EY2       0.137000
     24 H5           2.7560    -2.9820     0.4060 ha         1 EY2       0.158000
     25 H6           4.8200    -1.7450    -0.0530 ha         1 EY2       0.131000
     26 H7           0.6480    -3.5290     1.1630 h1         1 EY2       0.066700
     27 H8          -1.0300    -3.0630     1.2140 h1         1 EY2       0.066700
     28 H9          -1.2170    -3.4000    -1.2750 hc         1 EY2       0.055367
     29 H10          0.4900    -3.8510    -1.3360 hc         1 EY2       0.055367
     30 H11         -0.6620    -4.8670    -0.4700 hc         1 EY2       0.055367
     31 H12          5.8980     0.2240    -1.0940 hx         1 EY2       0.097200
     32 H13          5.0000     1.7300    -1.3120 hx         1 EY2       0.097200
     33 H14          5.0330     2.0130     1.0670 hn         1 EY2       0.446800
     34 H15          5.8430     0.6220     1.2740 hn         1 EY2       0.446800
     35 H16          7.7150     1.4370     0.0020 hx         1 EY2       0.100367
     36 H17          6.8290     2.9690    -0.2010 hx         1 EY2       0.100367
     37 H18          7.3420     2.4450     1.4200 hx         1 EY2       0.100367
@<TRIPOS>BOND
     1     1     2 ar  
     2     1     6 ar  
     3     1    20 1   
     4     2     3 ar  
     5     2    21 1   
     6     3     4 ar  
     7     3    19 1   
     8     4     5 ar  
     9     4    22 1   
    10     5     6 ar  
    11     5     7 1   
    12     6     8 1   
    13     7     9 1   
    14     7    14 1   
    15     8     9 ar  
    16     8    10 ar  
    17     9    11 ar  
    18    10    13 ar  
    19    10    23 1   
    20    11    12 ar  
    21    11    24 1   
    22    12    13 ar  
    23    12    25 1   
    24    13    16 1   
    25    14    15 1   
    26    14    26 1   
    27    14    27 1   
    28    15    28 1   
    29    15    29 1   
    30    15    30 1   
    31    16    17 1   
    32    16    31 1   
    33    16    32 1   
    34    17    18 1   
    35    17    33 1   
    36    17    34 1   
    37    18    35 1   
    38    18    36 1   
    39    18    37 1   
@<TRIPOS>SUBSTRUCTURE
     1 EY2         1 TEMP              0 ****  ****    0 ROOT
