@<TRIPOS>MOLECULE
EY3
   26    27     1     0     0
SMALL
No Charge or Current Charge


@<TRIPOS>ATOM
      1 C10         -1.3330   -30.1310    20.3860 cc         1 EY3      -0.159100
      2 C13         -1.8300   -27.4510    22.8850 ca         1 EY3      -0.160000
      3 C01         -3.9500   -25.3320    24.4060 c3         1 EY3      -0.107100
      4 C02         -2.4440   -25.2390    24.7420 c3         1 EY3       0.180300
      5 C03         -2.1700   -24.2740    25.9110 c3         1 EY3      -0.107100
      6 C05         -1.7980   -27.5990    24.2960 ca         1 EY3       0.123100
      7 C06         -1.5450   -28.8720    24.8650 ca         1 EY3      -0.121000
      8 C07         -1.3340   -30.0050    24.0480 ca         1 EY3      -0.092000
      9 C08         -1.3810   -29.8240    22.6600 ca         1 EY3      -0.086200
     10 C11         -1.5850   -28.7990    20.6870 cd         1 EY3      -0.252200
     11 C12         -1.6170   -28.5970    22.1110 ca         1 EY3      -0.061800
     12 N09         -1.2080   -30.7560    21.6470 na         1 EY3      -0.221700
     13 O04         -1.9850   -26.5390    25.1640 os         1 EY3      -0.359100
     14 H1          -1.2370   -30.6560    19.4390 h4         1 EY3       0.209000
     15 H2          -2.0060   -26.4960    22.4000 ha         1 EY3       0.118000
     16 H3          -4.3420   -24.3430    24.1410 hc         1 EY3       0.045033
     17 H4          -4.1280   -26.0010    23.5570 hc         1 EY3       0.045033
     18 H5          -4.5180   -25.7070    25.2660 hc         1 EY3       0.045033
     19 H6          -1.8830   -24.8820    23.8690 h1         1 EY3       0.040700
     20 H7          -1.0970   -24.2360    26.1340 hc         1 EY3       0.045033
     21 H8          -2.5000   -23.2600    25.6560 hc         1 EY3       0.045033
     22 H9          -2.7020   -24.5920    26.8150 hc         1 EY3       0.045033
     23 H10         -1.5140   -28.9770    25.9460 ha         1 EY3       0.124000
     24 H11         -1.1420   -30.9830    24.4830 ha         1 EY3       0.114000
     25 H12         -1.7360   -28.0190    19.9440 ha         1 EY3       0.203000
     26 H13         -1.0190   -31.7430    21.7950 hn         1 EY3       0.347000
@<TRIPOS>BOND
     1     1    10 2   
     2     1    12 1   
     3     1    14 1   
     4     2     6 ar  
     5     2    11 ar  
     6     2    15 1   
     7     3     4 1   
     8     3    16 1   
     9     3    17 1   
    10     3    18 1   
    11     4     5 1   
    12     4    13 1   
    13     4    19 1   
    14     5    20 1   
    15     5    21 1   
    16     5    22 1   
    17     6     7 ar  
    18     6    13 1   
    19     7     8 ar  
    20     7    23 1   
    21     8     9 ar  
    22     8    24 1   
    23     9    11 ar  
    24     9    12 1   
    25    10    11 1   
    26    10    25 1   
    27    12    26 1   
@<TRIPOS>SUBSTRUCTURE
     1 EY3         1 TEMP              0 ****  ****    0 ROOT
