@<TRIPOS>MOLECULE
EY3
   26    27     1     0     0
SMALL
bcc


@<TRIPOS>ATOM
      1 C10         -1.3270   -30.0900    20.4680 cc         1 EY3      -0.109100
      2 C13         -1.9010   -27.4490    22.8950 ca         1 EY3      -0.178000
      3 C01         -3.9300   -25.2950    24.3820 c3         1 EY3      -0.107100
      4 C02         -2.4540   -25.3080    24.7460 c3         1 EY3       0.157100
      5 C03         -2.1540   -24.3690    25.8980 c3         1 EY3      -0.107100
      6 C05         -1.8440   -27.5960    24.2690 ca         1 EY3       0.123100
      7 C06         -1.5460   -28.8540    24.8400 ca         1 EY3      -0.139000
      8 C07         -1.2990   -29.9620    24.0610 ca         1 EY3      -0.110000
      9 C08         -1.3550   -29.8120    22.6770 ca         1 EY3      -0.086200
     10 C11         -1.6310   -28.7720    20.6720 cd         1 EY3      -0.202200
     11 C12         -1.6530   -28.5690    22.0850 ca         1 EY3      -0.061800
     12 N09         -1.1590   -30.7150    21.6670 na         1 EY3      -0.171400
     13 O04         -2.0350   -26.6030    25.1690 os         1 EY3      -0.335900
     14 H1          -1.2150   -30.6360    19.5450 h4         1 EY3       0.159000
     15 H2          -2.1280   -26.5000    22.4260 ha         1 EY3       0.136000
     16 H3          -4.2220   -24.2970    24.0540 hc         1 EY3       0.045033
     17 H4          -4.1690   -25.9890    23.5760 hc         1 EY3       0.045033
     18 H5          -4.5410   -25.5560    25.2480 hc         1 EY3       0.045033
     19 H6          -1.8590   -24.9930    23.8800 h1         1 EY3       0.040700
     20 H7          -1.0930   -24.3720    26.1480 hc         1 EY3       0.045033
     21 H8          -2.4310   -23.3500    25.6280 hc         1 EY3       0.045033
     22 H9          -2.7210   -24.6460    26.7880 hc         1 EY3       0.045033
     23 H10         -1.5090   -28.9360    25.9200 ha         1 EY3       0.142000
     24 H11         -1.0720   -30.9160    24.5190 ha         1 EY3       0.132000
     25 H12         -1.8150   -28.0380    19.9040 ha         1 EY3       0.153000
     26 H13         -0.9420   -31.6900    21.7870 hn         1 EY3       0.296700
@<TRIPOS>BOND
     1     1    10 2   
     2     1    12 1   
     3     1    14 1   
     4     2     6 ar  
     5     2    11 ar  
     6     2    15 1   
     7     3     4 1   
     8     3    16 1   
     9     3    17 1   
    10     3    18 1   
    11     4     5 1   
    12     4    13 1   
    13     4    19 1   
    14     5    20 1   
    15     5    21 1   
    16     5    22 1   
    17     6     7 ar  
    18     6    13 1   
    19     7     8 ar  
    20     7    23 1   
    21     8     9 ar  
    22     8    24 1   
    23     9    11 ar  
    24     9    12 1   
    25    10    11 1   
    26    10    25 1   
    27    12    26 1   
@<TRIPOS>SUBSTRUCTURE
     1 EY3         1 TEMP              0 ****  ****    0 ROOT
