@<TRIPOS>MOLECULE
EY4
   56    59     1     0     0
SMALL
No Charge or Current Charge


@<TRIPOS>ATOM
      1 C10          2.1790     0.3050    -0.5030 c6         1 EY4      -0.013000
      2 C11         -0.2230     1.5140    -0.3310 c          1 EY4       0.581100
      3 C12         -1.6010     1.4880     0.3520 c6         1 EY4      -0.177400
      4 C13         -2.3720     0.2200    -0.1100 c5         1 EY4      -0.029000
      5 C14         -1.5150    -1.0310     0.2690 c5         1 EY4      -0.069700
      6 C15         -2.4840    -2.2050    -0.0520 c5         1 EY4      -0.069400
      7 C1           2.9050     1.5740     0.0630 c6         1 EY4      -0.067400
      8 C16         -3.8790    -1.6560     0.4110 c5         1 EY4      -0.068400
      9 C17         -3.6190    -0.1460     0.7690 c5         1 EY4      -0.166700
     10 C18         -2.6820     0.3660    -1.6410 c3         1 EY4      -0.089100
     11 C19          2.2600     0.3040    -2.0760 c3         1 EY4      -0.084100
     12 C2           4.4390     1.5680    -0.2030 c6         1 EY4      -0.109400
     13 C20         -4.8560     0.7540     0.4730 c          1 EY4       0.582100
     14 C21         -5.1940     1.7880     1.5450 c3         1 EY4      -0.201100
     15 C3           5.1330     0.2920     0.3380 c6         1 EY4       0.172300
     16 C4           4.4190    -0.9930    -0.1620 c6         1 EY4      -0.063400
     17 C5           2.8860    -0.9590     0.1190 c6         1 EY4      -0.057700
     18 C6           2.1920    -2.2830    -0.3050 c6         1 EY4      -0.071400
     19 C7           0.7130    -2.3000     0.1520 c6         1 EY4      -0.070400
     20 C8          -0.0840    -1.0640    -0.3560 c6         1 EY4      -0.039700
     21 C9           0.6740     0.2760    -0.0230 c6         1 EY4      -0.150700
     22 O11          0.0230     2.3290    -1.2110 o          1 EY4      -0.520100
     23 O20         -5.5400     0.6880    -0.5420 o          1 EY4      -0.518100
     24 O3           5.1690     0.3190     1.7700 oh         1 EY4      -0.664000
     25 H1          -1.4340     1.3880     1.4330 hc         1 EY4       0.065200
     26 H2          -2.1580     2.4090     0.1330 hc         1 EY4       0.065200
     27 H3          -1.3220    -1.0350     1.3500 hc         1 EY4       0.044700
     28 H4          -2.4840    -2.4540    -1.1190 hc         1 EY4       0.047700
     29 H5          -2.2090    -3.1200     0.4850 hc         1 EY4       0.047700
     30 H6           2.4800     2.4890    -0.3700 hc         1 EY4       0.049200
     31 H7           2.7310     1.6480     1.1450 hc         1 EY4       0.049200
     32 H8          -4.6180    -1.7800    -0.3890 hc         1 EY4       0.055200
     33 H9          -4.2650    -2.2050     1.2780 hc         1 EY4       0.055200
     34 H10         -3.3630    -0.0270     1.8290 hc         1 EY4       0.057700
     35 H11         -1.7720     0.3680    -2.2510 hc         1 EY4       0.044033
     36 H12         -3.3160    -0.4400    -2.0250 hc         1 EY4       0.044033
     37 H13         -3.2040     1.3070    -1.8500 hc         1 EY4       0.044033
     38 H14          1.8880     1.2390    -2.5060 hc         1 EY4       0.037367
     39 H15          3.2840     0.1920    -2.4460 hc         1 EY4       0.037367
     40 H16          1.6780    -0.5050    -2.5290 hc         1 EY4       0.037367
     41 H17          4.6320     1.6580    -1.2800 hc         1 EY4       0.043700
     42 H18          4.8930     2.4600     0.2490 hc         1 EY4       0.043700
     43 H19         -4.2970     2.3770     1.7700 hc         1 EY4       0.061033
     44 H20         -6.0420     2.4250     1.2700 hc         1 EY4       0.061033
     45 H21         -5.3720     1.2690     2.4930 hc         1 EY4       0.061033
     46 H22          6.1650     0.2770    -0.0420 h1         1 EY4       0.030700
     47 H23          4.6130    -1.1320    -1.2330 hc         1 EY4       0.048200
     48 H24          4.8670    -1.8670     0.3310 hc         1 EY4       0.048200
     49 H25          2.7790    -0.8930     1.2120 hc         1 EY4       0.058700
     50 H26          2.2570    -2.4310    -1.3910 hc         1 EY4       0.042200
     51 H27          2.7140    -3.1370     0.1490 hc         1 EY4       0.042200
     52 H28          0.2370    -3.2250    -0.2000 hc         1 EY4       0.041200
     53 H29          0.6820    -2.3380     1.2500 hc         1 EY4       0.041200
     54 H30         -0.1930    -1.1560    -1.4440 hc         1 EY4       0.059700
     55 H31          0.6780     0.2600     1.0760 hc         1 EY4       0.061700
     56 H32          5.6430     1.1410     2.0220 ho         1 EY4       0.439000
@<TRIPOS>BOND
     1     1     7 1   
     2     1    11 1   
     3     1    17 1   
     4     1    21 1   
     5     2     3 1   
     6     2    21 1   
     7     2    22 2   
     8     3     4 1   
     9     3    25 1   
    10     3    26 1   
    11     4     5 1   
    12     4     9 1   
    13     4    10 1   
    14     5     6 1   
    15     5    20 1   
    16     5    27 1   
    17     6     8 1   
    18     6    28 1   
    19     6    29 1   
    20     7    12 1   
    21     7    30 1   
    22     7    31 1   
    23     8     9 1   
    24     8    32 1   
    25     8    33 1   
    26     9    13 1   
    27     9    34 1   
    28    10    35 1   
    29    10    36 1   
    30    10    37 1   
    31    11    38 1   
    32    11    39 1   
    33    11    40 1   
    34    12    15 1   
    35    12    41 1   
    36    12    42 1   
    37    13    14 1   
    38    13    23 2   
    39    14    43 1   
    40    14    44 1   
    41    14    45 1   
    42    15    16 1   
    43    15    24 1   
    44    15    46 1   
    45    16    17 1   
    46    16    47 1   
    47    16    48 1   
    48    17    18 1   
    49    17    49 1   
    50    18    19 1   
    51    18    50 1   
    52    18    51 1   
    53    19    20 1   
    54    19    52 1   
    55    19    53 1   
    56    20    21 1   
    57    20    54 1   
    58    21    55 1   
    59    24    56 1   
@<TRIPOS>SUBSTRUCTURE
     1 EY4         1 TEMP              0 ****  ****    0 ROOT
