@<TRIPOS>MOLECULE
EY4
   56    59     1     0     0
SMALL
bcc


@<TRIPOS>ATOM
      1 C10          2.1200     0.3310    -0.4740 c6         1 EY4      -0.013000
      2 C11         -0.2190     1.4740    -0.2360 c          1 EY4       0.581100
      3 C12         -1.5920     1.4400     0.4090 c6         1 EY4      -0.177400
      4 C13         -2.3290     0.1770    -0.0390 c5         1 EY4      -0.029000
      5 C14         -1.4560    -1.0350     0.3120 c5         1 EY4      -0.069700
      6 C15         -2.3810    -2.2270     0.0860 c5         1 EY4      -0.069400
      7 C1           2.8570     1.5390     0.1350 c6         1 EY4      -0.067400
      8 C16         -3.7730    -1.7020     0.5040 c5         1 EY4      -0.068400
      9 C17         -3.6060    -0.1910     0.7640 c5         1 EY4      -0.166700
     10 C18         -2.6350     0.2650    -1.5370 c3         1 EY4      -0.089100
     11 C19          2.1590     0.4080    -2.0060 c3         1 EY4      -0.084100
     12 C2           4.3550     1.5320    -0.1590 c6         1 EY4      -0.109400
     13 C20         -4.8210     0.6480     0.4380 c          1 EY4       0.582100
     14 C21         -4.9750     1.9190     1.2240 c3         1 EY4      -0.201100
     15 C3           5.0460     0.2610     0.3150 c6         1 EY4       0.149100
     16 C4           4.3290    -0.9580    -0.2420 c6         1 EY4      -0.063400
     17 C5           2.8290    -0.9450     0.0490 c6         1 EY4      -0.057700
     18 C6           2.1520    -2.2170    -0.4420 c6         1 EY4      -0.071400
     19 C7           0.7070    -2.2710     0.0280 c6         1 EY4      -0.070400
     20 C8          -0.0900    -1.0270    -0.3570 c6         1 EY4      -0.039700
     21 C9           0.6650     0.2700     0.0500 c6         1 EY4      -0.150700
     22 O11          0.1060     2.4110    -0.9310 o          1 EY4      -0.520100
     23 O20         -5.6330     0.3150    -0.3980 o          1 EY4      -0.518100
     24 O3           5.0400     0.1530     1.7290 oh         1 EY4      -0.601800
     25 H1          -1.4730     1.4260     1.4990 hc         1 EY4       0.065200
     26 H2          -2.1250     2.3530     0.1380 hc         1 EY4       0.065200
     27 H3          -1.2680    -0.9730     1.3940 hc         1 EY4       0.044700
     28 H4          -2.3740    -2.5300    -0.9650 hc         1 EY4       0.047700
     29 H5          -2.0770    -3.0990     0.6640 hc         1 EY4       0.047700
     30 H6           2.4350     2.4710    -0.2390 hc         1 EY4       0.049200
     31 H7           2.7010     1.5440     1.2200 hc         1 EY4       0.049200
     32 H8          -4.5110    -1.8810    -0.2770 hc         1 EY4       0.055200
     33 H9          -4.1380    -2.1990     1.4030 hc         1 EY4       0.055200
     34 H10         -3.3670    -0.0240     1.8210 hc         1 EY4       0.057700
     35 H11         -1.7250     0.2900    -2.1370 hc         1 EY4       0.044033
     36 H12         -3.2260    -0.5800    -1.8900 hc         1 EY4       0.044033
     37 H13         -3.1890     1.1760    -1.7710 hc         1 EY4       0.044033
     38 H14          1.8910     1.4040    -2.3540 hc         1 EY4       0.037367
     39 H15          3.1480     0.1840    -2.4050 hc         1 EY4       0.037367
     40 H16          1.4700    -0.2940    -2.4760 hc         1 EY4       0.037367
     41 H17          4.5270     1.6390    -1.2340 hc         1 EY4       0.043700
     42 H18          4.8250     2.4080     0.3010 hc         1 EY4       0.043700
     43 H19         -4.0490     2.4950     1.2310 hc         1 EY4       0.061033
     44 H20         -5.7830     2.5380     0.8400 hc         1 EY4       0.061033
     45 H21         -5.1850     1.6670     2.2670 hc         1 EY4       0.061033
     46 H22          6.0820     0.2640    -0.0530 h1         1 EY4       0.030700
     47 H23          4.5130    -1.0100    -1.3190 hc         1 EY4       0.048200
     48 H24          4.7680    -1.8680     0.1800 hc         1 EY4       0.048200
     49 H25          2.7140    -0.9330     1.1410 hc         1 EY4       0.058700
     50 H26          2.2040    -2.2820    -1.5340 hc         1 EY4       0.042200
     51 H27          2.6920    -3.0880    -0.0590 hc         1 EY4       0.042200
     52 H28          0.2090    -3.1540    -0.3800 hc         1 EY4       0.041200
     53 H29          0.6880    -2.3830     1.1180 hc         1 EY4       0.041200
     54 H30         -0.2180    -1.0400    -1.4450 hc         1 EY4       0.059700
     55 H31          0.7310     0.2350     1.1500 hc         1 EY4       0.061700
     56 H32          5.3700     0.9810     2.0940 ho         1 EY4       0.400000
@<TRIPOS>BOND
     1     1     7 1   
     2     1    11 1   
     3     1    17 1   
     4     1    21 1   
     5     2     3 1   
     6     2    21 1   
     7     2    22 2   
     8     3     4 1   
     9     3    25 1   
    10     3    26 1   
    11     4     5 1   
    12     4     9 1   
    13     4    10 1   
    14     5     6 1   
    15     5    20 1   
    16     5    27 1   
    17     6     8 1   
    18     6    28 1   
    19     6    29 1   
    20     7    12 1   
    21     7    30 1   
    22     7    31 1   
    23     8     9 1   
    24     8    32 1   
    25     8    33 1   
    26     9    13 1   
    27     9    34 1   
    28    10    35 1   
    29    10    36 1   
    30    10    37 1   
    31    11    38 1   
    32    11    39 1   
    33    11    40 1   
    34    12    15 1   
    35    12    41 1   
    36    12    42 1   
    37    13    14 1   
    38    13    23 2   
    39    14    43 1   
    40    14    44 1   
    41    14    45 1   
    42    15    16 1   
    43    15    24 1   
    44    15    46 1   
    45    16    17 1   
    46    16    47 1   
    47    16    48 1   
    48    17    18 1   
    49    17    49 1   
    50    18    19 1   
    51    18    50 1   
    52    18    51 1   
    53    19    20 1   
    54    19    52 1   
    55    19    53 1   
    56    20    21 1   
    57    20    54 1   
    58    21    55 1   
    59    24    56 1   
@<TRIPOS>SUBSTRUCTURE
     1 EY4         1 TEMP              0 ****  ****    0 ROOT
