@<TRIPOS>MOLECULE
EY5
  114   116     1     0     0
SMALL
No Charge or Current Charge


@<TRIPOS>ATOM
      1 O1         -13.2370    -2.8970    29.9340 o          1 EY5      -0.473000
      2 C1         -14.3820    -2.4840    30.0470 c          1 EY5       0.593100
      3 O2         -14.7770    -1.1990    29.7680 os         1 EY5      -0.464100
      4 C13        -13.8600    -0.2630    29.1510 c3         1 EY5       0.171300
      5 C36        -14.1980     1.1270    29.7490 c3         1 EY5      -0.081400
      6 C37        -13.9310     1.2280    31.2670 c3         1 EY5      -0.089100
      7 C12        -14.0220    -0.3240    27.5900 c3         1 EY5      -0.095700
      8 C35        -15.5230    -0.3670    27.1670 c3         1 EY5      -0.083100
      9 C11        -13.1690    -1.4820    26.9770 c3         1 EY5       0.167300
     10 O12        -11.7800    -1.2150    27.1840 oh         1 EY5      -0.656000
     11 C10        -13.3820    -1.8130    25.4710 c3         1 EY5      -0.191700
     12 C34        -13.1420    -0.6080    24.5110 c3         1 EY5      -0.083100
     13 C2         -15.5050    -3.2760    30.7330 c3         1 EY5      -0.119700
     14 C30        -15.1350    -3.4960    32.2250 c3         1 EY5      -0.080100
     15 C3         -15.8360    -4.6040    29.9820 c3         1 EY5       0.199300
     16 O3         -16.9230    -5.1920    30.7380 os         1 EY5      -0.495000
     17 C14        -17.1520    -6.6110    30.6410 c6         1 EY5       0.400300
     18 O4         -18.3530    -6.8560    29.8830 os         1 EY5      -0.476000
     19 C18        -19.5640    -6.3160    30.4690 c6         1 EY5       0.144300
     20 C21        -20.7160    -6.6170    29.4770 c3         1 EY5      -0.084100
     21 C17        -19.8150    -6.9230    31.8880 c6         1 EY5       0.156300
     22 O6         -20.9510    -6.3020    32.5180 oh         1 EY5      -0.717000
     23 C16        -18.5520    -6.7200    32.7940 c6         1 EY5       0.149000
     24 C19        -18.6960    -7.4520    34.1580 c3         1 EY5      -0.117100
     25 O5         -18.3940    -5.3250    33.0770 oh         1 EY5      -0.669000
     26 C15        -17.2890    -7.2260    32.0500 c6         1 EY5      -0.131400
     27 C4         -16.2360    -4.4320    28.4600 c3         1 EY5      -0.085700
     28 C31        -17.6220    -3.7400    28.2910 c3         1 EY5      -0.084100
     29 C5         -16.0380    -5.7340    27.5770 c3         1 EY5       0.183300
     30 C6         -14.5730    -5.9950    27.0350 c3         1 EY5       0.179000
     31 C32        -14.4570    -7.4410    26.4860 c3         1 EY5      -0.121100
     32 O10        -13.6550    -5.9230    28.1320 oh         1 EY5      -0.735000
     33 C7         -14.1710    -4.9570    25.9150 c3         1 EY5      -0.083400
     34 C8         -12.7090    -4.3930    25.8960 c3         1 EY5      -0.167700
     35 C33        -11.6390    -5.4520    25.5110 c3         1 EY5      -0.077100
     36 C9         -12.6000    -3.0940    25.0300 c          1 EY5       0.584100
     37 O11        -11.9160    -3.0850    24.0120 o          1 EY5      -0.527100
     38 O7         -16.9140    -5.6900    26.4260 os         1 EY5      -0.440000
     39 C22        -18.0920    -6.5120    26.4920 c6         1 EY5       0.362300
     40 O9         -17.6790    -7.8940    26.5010 os         1 EY5      -0.500000
     41 C26        -18.7610    -8.8220    26.6960 c6         1 EY5       0.182300
     42 C27        -18.1360   -10.2320    26.7990 c3         1 EY5      -0.086100
     43 C25        -19.7740    -8.7020    25.5260 c6         1 EY5      -0.141400
     44 C24        -20.2590    -7.2310    25.3990 c6         1 EY5       0.159500
     45 N1         -21.2690    -6.9960    24.3150 n3         1 EY5      -0.721600
     46 C29        -22.5870    -7.6130    24.5960 c3         1 EY5       0.158100
     47 C28        -20.8040    -7.2880    22.9340 c3         1 EY5       0.158100
     48 C23        -19.0380    -6.2760    25.2710 c6         1 EY5       0.151300
     49 O8         -19.5260    -4.9230    25.1410 oh         1 EY5      -0.688000
     50 H21        -12.8170    -0.4800    29.4250 h1         1 EY5       0.086700
     51 H2         -16.4020    -2.6480    30.7160 hc         1 EY5       0.085700
     52 H361       -13.5960     1.8900    29.2410 hc         1 EY5       0.048700
     53 H362       -15.2490     1.3750    29.5590 hc         1 EY5       0.048700
     54 H12        -13.6160     0.6140    27.1910 hc         1 EY5       0.051700
     55 H371       -14.5620     0.5260    31.8250 hc         1 EY5       0.037700
     56 H372       -12.8820     1.0050    31.4920 hc         1 EY5       0.037700
     57 H373       -14.1500     2.2410    31.6260 hc         1 EY5       0.037700
     58 H351       -16.1030     0.4120    27.6730 hc         1 EY5       0.042367
     59 H352       -15.6420    -0.2000    26.0910 hc         1 EY5       0.042367
     60 H353       -15.9750    -1.3360    27.4090 hc         1 EY5       0.042367
     61 H11        -13.4660    -2.3730    27.5380 h1         1 EY5       0.087700
     62 HA         -11.5600    -0.4090    26.6700 ho         1 EY5       0.437000
     63 H10        -14.4370    -2.0920    25.4100 hc         1 EY5       0.079700
     64 H341       -13.7350     0.2670    24.8000 hc         1 EY5       0.042367
     65 H342       -12.0860    -0.3130    24.5020 hc         1 EY5       0.042367
     66 H343       -13.4280    -0.8710    23.4860 hc         1 EY5       0.042367
     67 H301       -14.2730    -4.1670    32.3190 hc         1 EY5       0.044033
     68 H302       -14.8770    -2.5410    32.7000 hc         1 EY5       0.044033
     69 H303       -15.9690    -3.9290    32.7880 hc         1 EY5       0.044033
     70 H3         -14.9450    -5.2380    30.0610 h1         1 EY5       0.067700
     71 H4         -15.5180    -3.7170    28.0510 hc         1 EY5       0.063700
     72 H14        -16.2960    -7.0950    30.1480 h2         1 EY5       0.067700
     73 H151       -17.3290    -8.3190    31.9510 hc         1 EY5       0.060200
     74 H152       -16.3850    -7.0050    32.6330 hc         1 EY5       0.060200
     75 H18        -19.4660    -5.2240    30.5520 h1         1 EY5       0.068700
     76 H211       -21.6750    -6.2480    29.8580 hc         1 EY5       0.044367
     77 H212       -20.5430    -6.1250    28.5150 hc         1 EY5       0.044367
     78 H213       -20.8190    -7.6940    29.2990 hc         1 EY5       0.044367
     79 H17        -19.9910    -8.0030    31.7680 h1         1 EY5       0.075700
     80 H6         -20.5480    -5.5780    33.0570 ho         1 EY5       0.521000
     81 H191       -18.8460    -8.5290    34.0160 hc         1 EY5       0.048033
     82 H192       -17.7980    -7.3230    34.7740 hc         1 EY5       0.048033
     83 H193       -19.5460    -7.0740    34.7380 hc         1 EY5       0.048033
     84 H5         -17.8390    -4.9810    32.3340 ho         1 EY5       0.449000
     85 H311       -17.6860    -2.8210    28.8830 hc         1 EY5       0.042700
     86 H312       -17.7930    -3.4520    27.2470 hc         1 EY5       0.042700
     87 H313       -18.4390    -4.3970    28.6010 hc         1 EY5       0.042700
     88 HB         -16.2980    -6.6020    28.1900 h1         1 EY5       0.058700
     89 H321       -15.1200    -7.5860    25.6240 hc         1 EY5       0.050033
     90 H322       -13.4390    -7.6740    26.1590 hc         1 EY5       0.050033
     91 H323       -14.7420    -8.1720    27.2520 hc         1 EY5       0.050033
     92 HC         -12.7800    -6.2080    27.7930 ho         1 EY5       0.511000
     93 H7C1       -14.3920    -5.3850    24.9290 hc         1 EY5       0.057700
     94 H7C2       -14.8600    -4.1130    25.9880 hc         1 EY5       0.057700
     95 H8         -12.5210    -4.0760    26.9230 hc         1 EY5       0.088700
     96 H331       -11.8410    -5.8690    24.5160 hc         1 EY5       0.039367
     97 H332       -10.6390    -5.0010    25.4960 hc         1 EY5       0.039367
     98 H333       -11.6080    -6.2780    26.2290 hc         1 EY5       0.039367
     99 H22        -18.6360    -6.2860    27.4190 h2         1 EY5       0.038700
    100 H23        -18.4700    -6.5550    24.3720 h1         1 EY5       0.093700
    101 H26        -19.2610    -8.5910    27.6480 h1         1 EY5       0.040700
    102 H271       -17.6020   -10.5000    25.8800 hc         1 EY5       0.045367
    103 H272       -17.4250   -10.2850    27.6310 hc         1 EY5       0.045367
    104 H273       -18.9080   -10.9910    26.9730 hc         1 EY5       0.045367
    105 H251       -19.2970    -9.0330    24.5940 hc         1 EY5       0.056700
    106 H252       -20.6220    -9.3740    25.7090 hc         1 EY5       0.056700
    107 H24        -20.7420    -6.9830    26.3560 h1         1 EY5       0.047700
    108 H291       -22.9450    -7.3290    25.5940 h1         1 EY5       0.032033
    109 H292       -23.3330    -7.2780    23.8630 h1         1 EY5       0.032033
    110 H293       -22.5310    -8.7080    24.5470 h1         1 EY5       0.032033
    111 H281       -21.5660    -6.9890    22.2030 h1         1 EY5       0.032033
    112 H282       -19.8850    -6.7400    22.6940 h1         1 EY5       0.032033
    113 H283       -20.6130    -8.3610    22.7990 h1         1 EY5       0.032033
    114 HD         -20.4020    -5.0480    24.7000 ho         1 EY5       0.497000
@<TRIPOS>BOND
     1     1     2 2   
     2     2     3 1   
     3     2    13 1   
     4     3     4 1   
     5     4     5 1   
     6     4     7 1   
     7     4    50 1   
     8     5     6 1   
     9     5    52 1   
    10     5    53 1   
    11     6    55 1   
    12     6    56 1   
    13     6    57 1   
    14     7     8 1   
    15     7     9 1   
    16     7    54 1   
    17     8    58 1   
    18     8    59 1   
    19     8    60 1   
    20     9    10 1   
    21     9    11 1   
    22     9    61 1   
    23    10    62 1   
    24    11    12 1   
    25    11    36 1   
    26    11    63 1   
    27    12    64 1   
    28    12    65 1   
    29    12    66 1   
    30    13    14 1   
    31    13    15 1   
    32    13    51 1   
    33    14    67 1   
    34    14    68 1   
    35    14    69 1   
    36    15    16 1   
    37    15    27 1   
    38    15    70 1   
    39    16    17 1   
    40    17    18 1   
    41    17    26 1   
    42    17    72 1   
    43    18    19 1   
    44    19    20 1   
    45    19    21 1   
    46    19    75 1   
    47    20    76 1   
    48    20    77 1   
    49    20    78 1   
    50    21    22 1   
    51    21    23 1   
    52    21    79 1   
    53    22    80 1   
    54    23    24 1   
    55    23    25 1   
    56    23    26 1   
    57    24    81 1   
    58    24    82 1   
    59    24    83 1   
    60    25    84 1   
    61    26    73 1   
    62    26    74 1   
    63    27    28 1   
    64    27    29 1   
    65    27    71 1   
    66    28    85 1   
    67    28    86 1   
    68    28    87 1   
    69    29    30 1   
    70    29    38 1   
    71    29    88 1   
    72    30    31 1   
    73    30    32 1   
    74    30    33 1   
    75    31    89 1   
    76    31    90 1   
    77    31    91 1   
    78    32    92 1   
    79    33    34 1   
    80    33    93 1   
    81    33    94 1   
    82    34    35 1   
    83    34    36 1   
    84    34    95 1   
    85    35    96 1   
    86    35    97 1   
    87    35    98 1   
    88    36    37 2   
    89    38    39 1   
    90    39    40 1   
    91    39    48 1   
    92    39    99 1   
    93    40    41 1   
    94    41    42 1   
    95    41    43 1   
    96    41   101 1   
    97    42   102 1   
    98    42   103 1   
    99    42   104 1   
   100    43    44 1   
   101    43   105 1   
   102    43   106 1   
   103    44    45 1   
   104    44    48 1   
   105    44   107 1   
   106    45    46 1   
   107    45    47 1   
   108    46   108 1   
   109    46   109 1   
   110    46   110 1   
   111    47   111 1   
   112    47   112 1   
   113    47   113 1   
   114    48    49 1   
   115    48   100 1   
   116    49   114 1   
@<TRIPOS>SUBSTRUCTURE
     1 EY5         1 TEMP              0 ****  ****    0 ROOT
