@<TRIPOS>MOLECULE
EY5
  114   116     1     0     0
SMALL
abcg2


@<TRIPOS>ATOM
      1 O1         -13.3130    -2.7950    30.2160 o          1 EY5      -0.473000
      2 C1         -14.4800    -2.4820    30.1260 c          1 EY5       0.593100
      3 O2         -14.9180    -1.3830    29.5010 os         1 EY5      -0.464100
      4 C13        -13.9660    -0.4260    28.9360 c3         1 EY5       0.171300
      5 C36        -14.2740     0.9280    29.5550 c3         1 EY5      -0.081400
      6 C37        -14.0800     0.9510    31.0690 c3         1 EY5      -0.089100
      7 C12        -14.0780    -0.4640    27.4050 c3         1 EY5      -0.095700
      8 C35        -15.5340    -0.4390    26.9310 c3         1 EY5      -0.083100
      9 C11        -13.2930    -1.6690    26.8600 c3         1 EY5       0.167300
     10 O12        -11.9020    -1.5680    27.1920 oh         1 EY5      -0.656000
     11 C10        -13.4660    -1.9240    25.3520 c3         1 EY5      -0.191700
     12 C34        -13.0710    -0.7310    24.4830 c3         1 EY5      -0.083100
     13 C2         -15.6260    -3.2600    30.7420 c3         1 EY5      -0.119700
     14 C30        -15.2910    -3.5580    32.2060 c3         1 EY5      -0.080100
     15 C3         -15.9400    -4.5590    29.9620 c3         1 EY5       0.199300
     16 O3         -17.0840    -5.1070    30.6220 os         1 EY5      -0.495000
     17 C14        -17.1730    -6.5060    30.7830 c6         1 EY5       0.400300
     18 O4         -18.2760    -7.0140    30.0590 os         1 EY5      -0.476000
     19 C18        -19.5580    -6.5960    30.5640 c6         1 EY5       0.144300
     20 C21        -20.6120    -7.1310    29.6190 c3         1 EY5      -0.084100
     21 C17        -19.7460    -7.1110    31.9960 c6         1 EY5       0.156300
     22 O6         -21.0170    -6.7220    32.5090 oh         1 EY5      -0.717000
     23 C16        -18.6150    -6.6310    32.9200 c6         1 EY5       0.149000
     24 C19        -18.6770    -7.3130    34.2830 c3         1 EY5      -0.117100
     25 O5         -18.8610    -5.2190    33.0780 oh         1 EY5      -0.669000
     26 C15        -17.2630    -6.9010    32.2530 c6         1 EY5      -0.131400
     27 C4         -16.1950    -4.3270    28.4540 c3         1 EY5      -0.085700
     28 C31        -17.5400    -3.6390    28.2200 c3         1 EY5      -0.084100
     29 C5         -16.0260    -5.6380    27.6330 c3         1 EY5       0.183300
     30 C6         -14.5790    -5.8720    27.1160 c3         1 EY5       0.179000
     31 C32        -14.4230    -7.3250    26.6780 c3         1 EY5      -0.121100
     32 O10        -13.7320    -5.6220    28.2470 oh         1 EY5      -0.735000
     33 C7         -14.2780    -4.8780    25.9570 c3         1 EY5      -0.083400
     34 C8         -12.8070    -4.4400    25.8000 c3         1 EY5      -0.167700
     35 C33        -11.8780    -5.5320    25.2780 c3         1 EY5      -0.077100
     36 C9         -12.7290    -3.1950    24.9180 c          1 EY5       0.584100
     37 O11        -12.0990    -3.2090    23.8780 o          1 EY5      -0.527100
     38 O7         -16.8670    -5.6550    26.4680 os         1 EY5      -0.440000
     39 C22        -17.9930    -6.4680    26.5380 c6         1 EY5       0.362300
     40 O9         -17.5660    -7.8190    26.4300 os         1 EY5      -0.500000
     41 C26        -18.6420    -8.7640    26.5260 c6         1 EY5       0.182300
     42 C27        -18.0250   -10.1470    26.5300 c3         1 EY5      -0.086100
     43 C25        -19.6100    -8.5370    25.3750 c6         1 EY5      -0.141400
     44 C24        -20.1200    -7.0880    25.3650 c6         1 EY5       0.159500
     45 N1         -21.0780    -6.7650    24.3050 n3         1 EY5      -0.721600
     46 C29        -22.3850    -7.3640    24.5240 c3         1 EY5       0.158100
     47 C28        -20.6090    -7.0050    22.9480 c3         1 EY5       0.158100
     48 C23        -18.9360    -6.1100    25.3840 c6         1 EY5       0.151300
     49 O8         -19.3560    -4.7550    25.4630 oh         1 EY5      -0.688000
     50 H21        -12.9680    -0.7420    29.2310 h1         1 EY5       0.086700
     51 H2         -16.5110    -2.6260    30.6990 hc         1 EY5       0.085700
     52 H361       -13.6080     1.6560    29.0850 hc         1 EY5       0.048700
     53 H362       -15.2960     1.2260    29.3050 hc         1 EY5       0.048700
     54 H12        -13.5770     0.4410    27.0470 hc         1 EY5       0.051700
     55 H371       -14.7560     0.2520    31.5650 hc         1 EY5       0.037700
     56 H372       -13.0560     0.6750    31.3360 hc         1 EY5       0.037700
     57 H373       -14.2760     1.9470    31.4700 hc         1 EY5       0.037700
     58 H351       -16.0960     0.3400    27.4470 hc         1 EY5       0.042367
     59 H352       -15.5970    -0.2360    25.8630 hc         1 EY5       0.042367
     60 H353       -16.0280    -1.3900    27.1250 hc         1 EY5       0.042367
     61 H11        -13.6350    -2.5520    27.3960 h1         1 EY5       0.087700
     62 HA         -11.5500    -0.7540    26.8100 ho         1 EY5       0.437000
     63 H10        -14.5270    -2.1360    25.1850 hc         1 EY5       0.079700
     64 H341       -13.6550     0.1500    24.7430 hc         1 EY5       0.042367
     65 H342       -12.0130    -0.4880    24.5980 hc         1 EY5       0.042367
     66 H343       -13.2420    -0.9520    23.4310 hc         1 EY5       0.042367
     67 H301       -14.4280    -4.2220    32.2760 hc         1 EY5       0.044033
     68 H302       -15.0600    -2.6370    32.7450 hc         1 EY5       0.044033
     69 H303       -16.1390    -4.0370    32.6890 hc         1 EY5       0.044033
     70 H3         -15.0960    -5.2380    30.0810 h1         1 EY5       0.067700
     71 H4         -15.4190    -3.6380    28.1160 hc         1 EY5       0.063700
     72 H14        -16.2970    -6.9810    30.3390 h2         1 EY5       0.067700
     73 H151       -17.0720    -7.9760    32.3050 hc         1 EY5       0.060200
     74 H152       -16.4700    -6.4050    32.8150 hc         1 EY5       0.060200
     75 H18        -19.5920    -5.5030    30.5770 h1         1 EY5       0.068700
     76 H211       -21.6050    -6.8800    29.9900 hc         1 EY5       0.044367
     77 H212       -20.4940    -6.6980    28.6270 hc         1 EY5       0.044367
     78 H213       -20.5340    -8.2170    29.5360 hc         1 EY5       0.044367
     79 H17        -19.7350    -8.2040    31.9730 h1         1 EY5       0.075700
     80 H6         -20.9140    -5.8140    32.8290 ho         1 EY5       0.521000
     81 H191       -18.5440    -8.3910    34.1820 hc         1 EY5       0.048033
     82 H192       -17.8810    -6.9290    34.9260 hc         1 EY5       0.048033
     83 H193       -19.6360    -7.1210    34.7630 hc         1 EY5       0.048033
     84 H5         -18.2420    -4.8690    33.7300 ho         1 EY5       0.449000
     85 H311       -17.5880    -2.7050    28.7810 hc         1 EY5       0.042700
     86 H312       -17.6800    -3.4110    27.1670 hc         1 EY5       0.042700
     87 H313       -18.3690    -4.2660    28.5440 hc         1 EY5       0.042700
     88 HB         -16.2930    -6.4920    28.2540 h1         1 EY5       0.058700
     89 H321       -15.0990    -7.5540    25.8580 hc         1 EY5       0.050033
     90 H322       -13.4030    -7.5280    26.3530 hc         1 EY5       0.050033
     91 H323       -14.6590    -7.9880    27.5120 hc         1 EY5       0.050033
     92 HC         -12.8830    -6.0530    28.0970 ho         1 EY5       0.511000
     93 H7C1       -14.6170    -5.3230    25.0210 hc         1 EY5       0.057700
     94 H7C2       -14.8920    -3.9930    26.1070 hc         1 EY5       0.057700
     95 H8         -12.4510    -4.1280    26.7850 hc         1 EY5       0.088700
     96 H331       -12.2700    -5.9820    24.3640 hc         1 EY5       0.039367
     97 H332       -10.8930    -5.1220    25.0550 hc         1 EY5       0.039367
     98 H333       -11.7480    -6.3220    26.0160 hc         1 EY5       0.039367
     99 H22        -18.5060    -6.3400    27.5000 h2         1 EY5       0.038700
    100 H23        -18.3570    -6.1890    24.4620 h1         1 EY5       0.093700
    101 H26        -19.1640    -8.5950    27.4750 h1         1 EY5       0.040700
    102 H271       -17.4700   -10.3190    25.6050 hc         1 EY5       0.045367
    103 H272       -17.3430   -10.2620    27.3740 hc         1 EY5       0.045367
    104 H273       -18.8050   -10.9050    26.6100 hc         1 EY5       0.045367
    105 H251       -19.0950    -8.7660    24.4380 hc         1 EY5       0.056700
    106 H252       -20.4520    -9.2270    25.4670 hc         1 EY5       0.056700
    107 H24        -20.6620    -6.9260    26.3040 h1         1 EY5       0.047700
    108 H291       -22.7340    -7.1310    25.5320 h1         1 EY5       0.032033
    109 H292       -23.0980    -6.9480    23.8090 h1         1 EY5       0.032033
    110 H293       -22.3940    -8.4590    24.4020 h1         1 EY5       0.032033
    111 H281       -21.3210    -6.5680    22.2450 h1         1 EY5       0.032033
    112 H282       -19.6420    -6.5290    22.7850 h1         1 EY5       0.032033
    113 H283       -20.5100    -8.0730    22.7000 h1         1 EY5       0.032033
    114 HD         -19.9700    -4.6670    26.2040 ho         1 EY5       0.497000
@<TRIPOS>BOND
     1     1     2 2   
     2     2     3 1   
     3     2    13 1   
     4     3     4 1   
     5     4     5 1   
     6     4     7 1   
     7     4    50 1   
     8     5     6 1   
     9     5    52 1   
    10     5    53 1   
    11     6    55 1   
    12     6    56 1   
    13     6    57 1   
    14     7     8 1   
    15     7     9 1   
    16     7    54 1   
    17     8    58 1   
    18     8    59 1   
    19     8    60 1   
    20     9    10 1   
    21     9    11 1   
    22     9    61 1   
    23    10    62 1   
    24    11    12 1   
    25    11    36 1   
    26    11    63 1   
    27    12    64 1   
    28    12    65 1   
    29    12    66 1   
    30    13    14 1   
    31    13    15 1   
    32    13    51 1   
    33    14    67 1   
    34    14    68 1   
    35    14    69 1   
    36    15    16 1   
    37    15    27 1   
    38    15    70 1   
    39    16    17 1   
    40    17    18 1   
    41    17    26 1   
    42    17    72 1   
    43    18    19 1   
    44    19    20 1   
    45    19    21 1   
    46    19    75 1   
    47    20    76 1   
    48    20    77 1   
    49    20    78 1   
    50    21    22 1   
    51    21    23 1   
    52    21    79 1   
    53    22    80 1   
    54    23    24 1   
    55    23    25 1   
    56    23    26 1   
    57    24    81 1   
    58    24    82 1   
    59    24    83 1   
    60    25    84 1   
    61    26    73 1   
    62    26    74 1   
    63    27    28 1   
    64    27    29 1   
    65    27    71 1   
    66    28    85 1   
    67    28    86 1   
    68    28    87 1   
    69    29    30 1   
    70    29    38 1   
    71    29    88 1   
    72    30    31 1   
    73    30    32 1   
    74    30    33 1   
    75    31    89 1   
    76    31    90 1   
    77    31    91 1   
    78    32    92 1   
    79    33    34 1   
    80    33    93 1   
    81    33    94 1   
    82    34    35 1   
    83    34    36 1   
    84    34    95 1   
    85    35    96 1   
    86    35    97 1   
    87    35    98 1   
    88    36    37 2   
    89    38    39 1   
    90    39    40 1   
    91    39    48 1   
    92    39    99 1   
    93    40    41 1   
    94    41    42 1   
    95    41    43 1   
    96    41   101 1   
    97    42   102 1   
    98    42   103 1   
    99    42   104 1   
   100    43    44 1   
   101    43   105 1   
   102    43   106 1   
   103    44    45 1   
   104    44    48 1   
   105    44   107 1   
   106    45    46 1   
   107    45    47 1   
   108    46   108 1   
   109    46   109 1   
   110    46   110 1   
   111    47   111 1   
   112    47   112 1   
   113    47   113 1   
   114    48    49 1   
   115    48   100 1   
   116    49   114 1   
@<TRIPOS>SUBSTRUCTURE
     1 EY5         1 TEMP              0 ****  ****    0 ROOT
