@<TRIPOS>MOLECULE
EY6
   23    24     1     0     0
SMALL
abcg2


@<TRIPOS>ATOM
      1 C01          2.7940    27.8390    24.8870 ca         1 EY6      -0.166000
      2 C02          2.0350    28.9890    24.7550 ca         1 EY6      -0.091000
      3 C03          1.5160    29.2970    23.5040 ca         1 EY6      -0.079200
      4 C04          1.7470    28.4680    22.3840 ca         1 EY6      -0.062800
      5 C05          1.0720    29.0730    21.2790 cc         1 EY6      -0.249200
      6 C06          0.4790    30.2080    21.7580 cd         1 EY6      -0.154100
      7 C08          2.5150    27.3090    22.5340 ca         1 EY6      -0.100000
      8 C09          3.0320    27.0020    23.7820 ca         1 EY6       0.109100
      9 C11          4.2660    25.4550    25.1130 c3         1 EY6       0.131600
     10 C12          4.9950    24.1480    24.8780 c3         1 EY6       0.181600
     11 F13          5.4960    23.7090    26.0980 f          1 EY6      -0.268000
     12 N07          0.7420    30.3450    23.0880 na         1 EY6      -0.224700
     13 O10          3.7690    25.8630    23.8590 os         1 EY6      -0.355100
     14 H1           3.1990    27.6020    25.8610 ha         1 EY6       0.116000
     15 H2           1.8580    29.6250    25.6130 ha         1 EY6       0.113000
     16 H3           1.0290    28.7140    20.2640 ha         1 EY6       0.207000
     17 H4          -0.1210    30.9400    21.2400 h4         1 EY6       0.211000
     18 H5           2.7060    26.6540    21.6930 ha         1 EY6       0.129000
     19 H6           3.4550    25.3030    25.8350 h1         1 EY6       0.045200
     20 H7           4.9570    26.1950    25.5310 h1         1 EY6       0.045200
     21 H8           5.8280    24.2790    24.1860 h1         1 EY6       0.056700
     22 H9           4.3210    23.3850    24.4850 h1         1 EY6       0.056700
     23 H10          0.4210    31.1040    23.6660 hn         1 EY6       0.349000
@<TRIPOS>BOND
     1     1     2 ar  
     2     1     8 ar  
     3     1    14 1   
     4     2     3 ar  
     5     2    15 1   
     6     3     4 ar  
     7     3    12 1   
     8     4     5 1   
     9     4     7 ar  
    10     5     6 2   
    11     5    16 1   
    12     6    12 1   
    13     6    17 1   
    14     7     8 ar  
    15     7    18 1   
    16     8    13 1   
    17     9    10 1   
    18     9    13 1   
    19     9    19 1   
    20     9    20 1   
    21    10    11 1   
    22    10    21 1   
    23    10    22 1   
    24    12    23 1   
@<TRIPOS>SUBSTRUCTURE
     1 EY6         1 TEMP              0 ****  ****    0 ROOT
