@<TRIPOS>MOLECULE
EY6
   23    24     1     0     0
SMALL
No Charge or Current Charge


@<TRIPOS>ATOM
      1 C01          2.7500    27.8480    24.9060 ca         1 EY6      -0.166000
      2 C02          1.9880    29.0270    24.7470 ca         1 EY6      -0.091000
      3 C03          1.4850    29.3240    23.4730 ca         1 EY6      -0.079200
      4 C04          1.7220    28.5020    22.4090 ca         1 EY6      -0.062800
      5 C05          1.0790    29.0850    21.2730 cc         1 EY6      -0.249200
      6 C06          0.4700    30.2570    21.7060 cd         1 EY6      -0.154100
      7 C08          2.4730    27.3260    22.5270 ca         1 EY6      -0.100000
      8 C09          2.9950    26.9940    23.7940 ca         1 EY6       0.109100
      9 C11          4.3110    25.4020    25.1500 c3         1 EY6       0.131600
     10 C12          5.0600    24.0790    24.9010 c3         1 EY6       0.181600
     11 F13          5.6220    23.6350    26.0550 f          1 EY6      -0.268000
     12 N07          0.7200    30.4170    23.0920 na         1 EY6      -0.224700
     13 O10          3.7340    25.8330    23.9020 os         1 EY6      -0.355100
     14 H1           3.1410    27.6150    25.8920 ha         1 EY6       0.116000
     15 H2           1.7970    29.6850    25.5920 ha         1 EY6       0.113000
     16 H3           1.0610    28.6980    20.2560 ha         1 EY6       0.207000
     17 H4          -0.1150    30.9800    21.1400 h4         1 EY6       0.211000
     18 H5           2.6490    26.6860    21.6670 ha         1 EY6       0.129000
     19 H6           3.5300    25.2390    25.9030 h1         1 EY6       0.045200
     20 H7           5.0180    26.1520    25.5290 h1         1 EY6       0.045200
     21 H8           5.8530    24.2290    24.1590 h1         1 EY6       0.056700
     22 H9           4.3640    23.3160    24.5330 h1         1 EY6       0.056700
     23 H10          0.4030    31.1770    23.6870 hn         1 EY6       0.349000
@<TRIPOS>BOND
     1     1     2 ar  
     2     1     8 ar  
     3     1    14 1   
     4     2     3 ar  
     5     2    15 1   
     6     3     4 ar  
     7     3    12 1   
     8     4     5 1   
     9     4     7 ar  
    10     5     6 2   
    11     5    16 1   
    12     6    12 1   
    13     6    17 1   
    14     7     8 ar  
    15     7    18 1   
    16     8    13 1   
    17     9    10 1   
    18     9    13 1   
    19     9    19 1   
    20     9    20 1   
    21    10    11 1   
    22    10    21 1   
    23    10    22 1   
    24    12    23 1   
@<TRIPOS>SUBSTRUCTURE
     1 EY6         1 TEMP              0 ****  ****    0 ROOT
