@<TRIPOS>MOLECULE
EY8
   45    48     1     0     0
SMALL
abcg2


@<TRIPOS>ATOM
      1 O4          -9.0540    18.3810   -14.4720 o          1 EY8      -0.532500
      2 C7          -6.7100    14.4610   -15.4190 c6         1 EY8       0.154600
      3 C9          -8.9720    14.2430   -16.1430 ca         1 EY8       0.133100
      4 C10        -10.1050    13.4450   -16.2900 ca         1 EY8      -0.170000
      5 C11        -11.2370    14.0020   -16.8450 ca         1 EY8       0.192000
      6 C13        -11.3040    15.3290   -17.2350 ca         1 EY8      -0.162000
      7 C14        -10.1740    16.1140   -17.0710 ca         1 EY8      -0.050000
      8 C15         -8.9880    15.5800   -16.5690 ca         1 EY8      -0.129000
      9 C19         -7.9330    17.5540   -18.5050 ca         1 EY8      -0.143600
     10 C20         -7.9890    16.4660   -19.3750 ca         1 EY8      -0.067000
     11 C21         -8.4300    16.6400   -20.6790 ca         1 EY8      -0.112000
     12 C22         -8.8340    17.8950   -21.1090 ca         1 EY8       0.108100
     13 C24        -10.1700    19.1290   -22.6190 c6         1 EY8       0.075600
     14 S2          -8.0650    17.9200   -13.5240 s6         1 EY8       1.208100
     15 O3          -8.3540    18.0090   -12.1110 o          1 EY8      -0.532500
     16 C5          -7.7030    16.1950   -13.8690 c3         1 EY8      -0.384400
     17 C6          -7.0190    15.9390   -15.2120 c6         1 EY8       0.103700
     18 O8          -7.9060    13.6750   -15.5220 os         1 EY8      -0.333100
     19 N16         -7.8210    16.3590   -16.3630 n          1 EY8      -0.225400
     20 C17         -7.4040    17.4170   -17.1220 c          1 EY8       0.650700
     21 O18         -6.5720    18.2210   -16.6930 o          1 EY8      -0.619100
     22 O23         -9.2300    18.0710   -22.4010 os         1 EY8      -0.330100
     23 C25         -9.8300    20.4160   -21.8910 c          1 EY8       0.540000
     24 O26        -10.2030    21.5050   -22.3030 o          1 EY8      -0.525000
     25 N27         -9.1370    20.2510   -20.7400 ns         1 EY8      -0.141000
     26 C28         -8.7680    18.9940   -20.2440 ca         1 EY8      -0.088000
     27 C29         -8.3090    18.8210   -18.9480 ca         1 EY8      -0.072000
     28 H1          -6.1530    14.0510   -14.5810 h1         1 EY8       0.069700
     29 H2          -6.1280    14.3490   -16.3360 h1         1 EY8       0.069700
     30 H3         -10.0880    12.4140   -15.9650 ha         1 EY8       0.151000
     31 H4         -12.2200    15.7390   -17.6350 ha         1 EY8       0.142000
     32 H5         -10.2140    17.1600   -17.3350 ha         1 EY8       0.140000
     33 H6          -7.6880    15.4840   -19.0380 ha         1 EY8       0.129000
     34 H7          -8.4680    15.8100   -21.3730 ha         1 EY8       0.140000
     35 H8         -10.1820    19.3220   -23.6880 h1         1 EY8       0.089200
     36 H9         -11.1690    18.8110   -22.3000 h1         1 EY8       0.089200
     37 H10         -5.9430    18.5410   -13.1900 hn         1 EY8       0.491500
     38 H11         -6.4490    18.7470   -14.8010 hn         1 EY8       0.491500
     39 H12         -8.6620    15.6810   -13.7850 h1         1 EY8       0.114700
     40 H13         -7.0530    15.8610   -13.0610 h1         1 EY8       0.114700
     41 H14         -6.0770    16.4770   -15.2520 h1         1 EY8       0.081700
     42 H15         -8.9500    21.0750   -20.1810 hn         1 EY8       0.172000
     43 H16         -8.2490    19.6710   -18.2810 ha         1 EY8       0.143000
     44 F12        -12.3360    13.2210   -16.9890 f          1 EY8      -0.174000
     45 N1          -6.7090    18.7830   -13.8110 n8         1 EY8      -1.004100
@<TRIPOS>BOND
     1     1    14 2   
     2     2    17 1   
     3     2    18 1   
     4     2    28 1   
     5     2    29 1   
     6     3     4 ar  
     7     3     8 ar  
     8     3    18 1   
     9     4     5 ar  
    10     4    30 1   
    11     5     6 ar  
    12     5    44 1   
    13     6     7 ar  
    14     6    31 1   
    15     7     8 ar  
    16     7    32 1   
    17     8    19 1   
    18     9    10 ar  
    19     9    20 1   
    20     9    27 ar  
    21    10    11 ar  
    22    10    33 1   
    23    11    12 ar  
    24    11    34 1   
    25    12    22 1   
    26    12    26 ar  
    27    13    22 1   
    28    13    23 1   
    29    13    35 1   
    30    13    36 1   
    31    14    15 2   
    32    14    16 1   
    33    14    45 1   
    34    16    17 1   
    35    16    39 1   
    36    16    40 1   
    37    17    19 1   
    38    17    41 1   
    39    19    20 1   
    40    20    21 2   
    41    23    24 2   
    42    23    25 1   
    43    25    26 1   
    44    25    42 1   
    45    26    27 ar  
    46    27    43 1   
    47    37    45 1   
    48    38    45 1   
@<TRIPOS>SUBSTRUCTURE
     1 EY8         1 TEMP              0 ****  ****    0 ROOT
