@<TRIPOS>MOLECULE
EY8
   45    48     1     0     0
SMALL
No Charge or Current Charge


@<TRIPOS>ATOM
      1 O4          -9.1150    18.3340   -14.2560 o          1 EY8      -0.532500
      2 C7          -6.6110    14.4740   -15.3990 c6         1 EY8       0.154600
      3 C9          -8.9430    14.1490   -16.0420 ca         1 EY8       0.133100
      4 C10        -10.0240    13.2760   -16.2260 ca         1 EY8      -0.170000
      5 C11        -11.2080    13.7440   -16.8100 ca         1 EY8       0.192000
      6 C13        -11.3190    15.0830   -17.2060 ca         1 EY8      -0.162000
      7 C14        -10.2420    15.9660   -17.0150 ca         1 EY8      -0.050000
      8 C15         -9.0490    15.5180   -16.4020 ca         1 EY8      -0.129000
      9 C19         -8.1250    17.6750   -18.4530 ca         1 EY8      -0.143600
     10 C20         -8.2820    16.5350   -19.2820 ca         1 EY8      -0.067000
     11 C21         -8.7210    16.6710   -20.6110 ca         1 EY8      -0.112000
     12 C22         -9.0030    17.9410   -21.1280 ca         1 EY8       0.108100
     13 C24        -10.1540    19.2890   -22.7860 c6         1 EY8       0.075600
     14 S2          -8.0690    17.8930   -13.3370 s6         1 EY8       1.208100
     15 O3          -8.2470    17.9990   -11.8900 o          1 EY8      -0.532500
     16 C5          -7.5230    16.2430   -13.7730 c3         1 EY8      -0.384400
     17 C6          -6.9450    15.9750   -15.2030 c6         1 EY8       0.103700
     18 O8          -7.8060    13.6580   -15.4320 os         1 EY8      -0.333100
     19 N16         -7.8670    16.3530   -16.3010 n          1 EY8      -0.225400
     20 C17         -7.6320    17.5560   -17.0250 c          1 EY8       0.650700
     21 O18         -6.9390    18.4480   -16.5410 o          1 EY8      -0.619100
     22 O23         -9.4300    18.0740   -22.4380 os         1 EY8      -0.330100
     23 C25         -9.4810    20.5450   -22.1990 c          1 EY8       0.540000
     24 O26         -9.3010    21.5830   -22.8260 o          1 EY8      -0.525000
     25 N27         -9.0290    20.3540   -20.9110 ns         1 EY8      -0.141000
     26 C28         -8.8160    19.0860   -20.3250 ca         1 EY8      -0.088000
     27 C29         -8.3710    18.9550   -18.9990 ca         1 EY8      -0.072000
     28 H1          -5.9470    14.1130   -14.6010 h1         1 EY8       0.069700
     29 H2          -6.0840    14.3490   -16.3560 h1         1 EY8       0.069700
     30 H3          -9.9440    12.2370   -15.9200 ha         1 EY8       0.151000
     31 H4         -12.2400    15.4360   -17.6620 ha         1 EY8       0.142000
     32 H5         -10.3610    17.0030   -17.3190 ha         1 EY8       0.140000
     33 H6          -8.0530    15.5410   -18.9050 ha         1 EY8       0.129000
     34 H7          -8.8430    15.7910   -21.2380 ha         1 EY8       0.140000
     35 H8         -10.2130    19.3930   -23.8770 h1         1 EY8       0.089200
     36 H9         -11.1680    19.2380   -22.3680 h1         1 EY8       0.089200
     37 H10         -5.9850    18.1100   -13.6120 hn         1 EY8       0.491500
     38 H11         -6.8440    18.8570   -14.7250 hn         1 EY8       0.491500
     39 H12         -8.4110    15.6190   -13.6190 h1         1 EY8       0.114700
     40 H13         -6.7820    15.9640   -13.0160 h1         1 EY8       0.114700
     41 H14         -5.9980    16.5240   -15.3120 h1         1 EY8       0.081700
     42 H15         -8.6250    21.1530   -20.4410 hn         1 EY8       0.172000
     43 H16         -8.2200    19.8460   -18.3900 ha         1 EY8       0.143000
     44 F12        -12.2460    12.9000   -16.9920 f          1 EY8      -0.174000
     45 N1          -6.7430    18.7770   -13.7070 n8         1 EY8      -1.004100
@<TRIPOS>BOND
     1     1    14 2   
     2     2    17 1   
     3     2    18 1   
     4     2    28 1   
     5     2    29 1   
     6     3     4 ar  
     7     3     8 ar  
     8     3    18 1   
     9     4     5 ar  
    10     4    30 1   
    11     5     6 ar  
    12     5    44 1   
    13     6     7 ar  
    14     6    31 1   
    15     7     8 ar  
    16     7    32 1   
    17     8    19 1   
    18     9    10 ar  
    19     9    20 1   
    20     9    27 ar  
    21    10    11 ar  
    22    10    33 1   
    23    11    12 ar  
    24    11    34 1   
    25    12    22 1   
    26    12    26 ar  
    27    13    22 1   
    28    13    23 1   
    29    13    35 1   
    30    13    36 1   
    31    14    15 2   
    32    14    16 1   
    33    14    45 1   
    34    16    17 1   
    35    16    39 1   
    36    16    40 1   
    37    17    19 1   
    38    17    41 1   
    39    19    20 1   
    40    20    21 2   
    41    23    24 2   
    42    23    25 1   
    43    25    26 1   
    44    25    42 1   
    45    26    27 ar  
    46    27    43 1   
    47    37    45 1   
    48    38    45 1   
@<TRIPOS>SUBSTRUCTURE
     1 EY8         1 TEMP              0 ****  ****    0 ROOT
