@<TRIPOS>MOLECULE
EY9
   27    28     1     0     0
SMALL
bcc


@<TRIPOS>ATOM
      1 C10          1.0680    30.2320    22.3720 ca         1 EY9      -0.063800
      2 C13          0.8200    28.8490    24.1210 cc         1 EY9      -0.105100
      3 C01          5.5430    35.4440    19.4100 c3         1 EY9       0.124700
      4 C03          3.6960    34.0360    19.6630 c3         1 EY9       0.096400
      5 C04          2.1760    34.0760    19.7170 c3         1 EY9       0.138400
      6 C06          1.6110    32.2000    21.1090 ca         1 EY9       0.104100
      7 C07          2.0340    32.8410    22.2890 ca         1 EY9      -0.183000
      8 C08          1.9790    32.1930    23.5100 ca         1 EY9      -0.112000
      9 C09          1.4950    30.8910    23.5460 ca         1 EY9      -0.080200
     10 C11          1.1310    30.9010    21.1460 ca         1 EY9      -0.119000
     11 C12          0.6400    28.9270    22.7680 cd         1 EY9      -0.198200
     12 N14          1.3320    30.0220    24.5900 na         1 EY9      -0.175400
     13 O02          4.1440    35.3540    19.4860 os         1 EY9      -0.410600
     14 O05          1.6220    32.7890    19.8820 os         1 EY9      -0.324900
     15 H1           0.6180    28.0320    24.7950 h4         1 EY9       0.160000
     16 H2           5.8060    36.4920    19.2740 h1         1 EY9       0.029700
     17 H3           6.0280    35.0800    20.3230 h1         1 EY9       0.029700
     18 H4           5.9460    34.8730    18.5650 h1         1 EY9       0.029700
     19 H5           4.1110    33.5990    20.5820 h1         1 EY9       0.033700
     20 H6           4.0160    33.3910    18.8320 h1         1 EY9       0.033700
     21 H7           1.8350    34.7710    20.4920 h1         1 EY9       0.063200
     22 H8           1.7870    34.4430    18.7650 h1         1 EY9       0.063200
     23 H9           2.4140    33.8530    22.2700 ha         1 EY9       0.136000
     24 H10          2.3090    32.6980    24.4090 ha         1 EY9       0.130000
     25 H11          0.8100    30.4170    20.2320 ha         1 EY9       0.147000
     26 H12          0.2510    28.1470    22.1340 ha         1 EY9       0.156000
     27 H13          1.5520    30.2140    25.5530 hn         1 EY9       0.297700
@<TRIPOS>BOND
     1     1     9 ar  
     2     1    10 ar  
     3     1    11 1   
     4     2    11 2   
     5     2    12 1   
     6     2    15 1   
     7     3    13 1   
     8     3    16 1   
     9     3    17 1   
    10     3    18 1   
    11     4     5 1   
    12     4    13 1   
    13     4    19 1   
    14     4    20 1   
    15     5    14 1   
    16     5    21 1   
    17     5    22 1   
    18     6     7 ar  
    19     6    10 ar  
    20     6    14 1   
    21     7     8 ar  
    22     7    23 1   
    23     8     9 ar  
    24     8    24 1   
    25     9    12 1   
    26    10    25 1   
    27    11    26 1   
    28    12    27 1   
@<TRIPOS>SUBSTRUCTURE
     1 EY9         1 TEMP              0 ****  ****    0 ROOT
