@<TRIPOS>MOLECULE
EY9
   27    28     1     0     0
SMALL
No Charge or Current Charge


@<TRIPOS>ATOM
      1 C10          1.0960    30.2550    22.3890 ca         1 EY9      -0.063800
      2 C13          0.9040    28.7370    24.1410 cc         1 EY9      -0.155100
      3 C01          5.6520    35.3760    19.3970 c3         1 EY9       0.147900
      4 C03          3.6470    34.0490    19.6750 c3         1 EY9       0.119600
      5 C04          2.1050    34.1810    19.6520 c3         1 EY9       0.161600
      6 C06          1.5220    32.2490    21.1090 ca         1 EY9       0.104100
      7 C07          1.9250    32.9010    22.3100 ca         1 EY9      -0.165000
      8 C08          1.9120    32.2090    23.5420 ca         1 EY9      -0.094000
      9 C09          1.4880    30.8750    23.5400 ca         1 EY9      -0.080200
     10 C11          1.0940    30.9040    21.1500 ca         1 EY9      -0.101000
     11 C12          0.7320    28.9170    22.7750 cd         1 EY9      -0.248200
     12 N14          1.3810    29.9850    24.6000 na         1 EY9      -0.225700
     13 O02          4.2140    35.3460    19.4070 os         1 EY9      -0.457000
     14 O05          1.5120    32.8830    19.8800 os         1 EY9      -0.348100
     15 H1           0.7380    27.8780    24.7870 h4         1 EY9       0.210000
     16 H2           6.0100    36.3920    19.1870 h1         1 EY9       0.029700
     17 H3           6.0560    35.0650    20.3690 h1         1 EY9       0.029700
     18 H4           6.0500    34.7060    18.6240 h1         1 EY9       0.029700
     19 H5           3.9780    33.6810    20.6550 h1         1 EY9       0.033700
     20 H6           3.9590    33.3260    18.9110 h1         1 EY9       0.033700
     21 H7           1.7680    34.9150    20.3940 h1         1 EY9       0.063200
     22 H8           1.8070    34.5530    18.6630 h1         1 EY9       0.063200
     23 H9           2.2450    33.9390    22.3080 ha         1 EY9       0.118000
     24 H10          2.2190    32.6990    24.4640 ha         1 EY9       0.112000
     25 H11          0.7770    30.3900    20.2470 ha         1 EY9       0.129000
     26 H12          0.3710    28.1490    22.0940 ha         1 EY9       0.206000
     27 H13          1.6140    30.2050    25.5650 hn         1 EY9       0.348000
@<TRIPOS>BOND
     1     1     9 ar  
     2     1    10 ar  
     3     1    11 1   
     4     2    11 2   
     5     2    12 1   
     6     2    15 1   
     7     3    13 1   
     8     3    16 1   
     9     3    17 1   
    10     3    18 1   
    11     4     5 1   
    12     4    13 1   
    13     4    19 1   
    14     4    20 1   
    15     5    14 1   
    16     5    21 1   
    17     5    22 1   
    18     6     7 ar  
    19     6    10 ar  
    20     6    14 1   
    21     7     8 ar  
    22     7    23 1   
    23     8     9 ar  
    24     8    24 1   
    25     9    12 1   
    26    10    25 1   
    27    11    26 1   
    28    12    27 1   
@<TRIPOS>SUBSTRUCTURE
     1 EY9         1 TEMP              0 ****  ****    0 ROOT
