@<TRIPOS>MOLECULE
EYA
   28    29     1     0     0
SMALL
No Charge or Current Charge


@<TRIPOS>ATOM
      1 C1           0.4300    -0.3780    -0.0710 cc         1 EYA       0.525900
      2 C2           1.9510    -0.5090    -0.0790 c3         1 EYA      -0.103700
      3 C3           2.7850     0.7830     0.1910 c3         1 EYA      -0.203400
      4 C4           4.2870     0.4590     0.1840 c          1 EYA       0.717000
      5 C5          -1.4610     0.9650     0.0130 ca         1 EYA       0.211400
      6 C6          -2.0120     2.2590     0.0700 ca         1 EYA      -0.112000
      7 C7          -3.4020     2.4530     0.1090 ca         1 EYA      -0.083000
      8 C8          -4.2590     1.3440     0.0900 ca         1 EYA      -0.160000
      9 O1           4.8040     0.1100     1.2340 o          1 EYA      -0.738500
     10 N1          -0.0690     0.8620    -0.0150 nd         1 EYA      -0.636100
     11 N           -0.3390    -1.5500    -0.1310 n          1 EYA      -0.335300
     12 C            0.3040    -2.8930    -0.2280 c3         1 EYA       0.072300
     13 O            4.8800     0.5040    -0.8820 o          1 EYA      -0.738500
     14 O2          -2.4390    -2.4970    -0.0710 o          1 EYA      -0.571000
     15 C11         -1.7340    -1.4940    -0.0700 c          1 EYA       0.572600
     16 C10         -2.3220    -0.1390    -0.0060 ca         1 EYA      -0.221600
     17 C9          -3.7220     0.0480     0.0330 ca         1 EYA      -0.040000
     18 H1           2.2460    -1.2500     0.6740 hc         1 EYA       0.067700
     19 H2           2.2610    -0.9130    -1.0500 hc         1 EYA       0.067700
     20 H3           2.5490     1.4780    -0.6240 hc         1 EYA       0.037700
     21 H4           2.4820     1.1400     1.1830 hc         1 EYA       0.037700
     22 H5          -1.3510     3.1220     0.0870 ha         1 EYA       0.134000
     23 H6          -3.8120     3.4600     0.1530 ha         1 EYA       0.104000
     24 H7          -5.3370     1.4860     0.1200 ha         1 EYA       0.104000
     25 H8           0.7400    -3.1630     0.7420 h1         1 EYA       0.055367
     26 H9          -0.4120    -3.6710    -0.5170 h1         1 EYA       0.055367
     27 H10          1.0950    -2.8830    -0.9880 h1         1 EYA       0.055367
     28 H12         -4.3960    -0.8070     0.0190 ha         1 EYA       0.124000
@<TRIPOS>BOND
     1     1     2 1   
     2     1    10 2   
     3     1    11 1   
     4     2     3 1   
     5     2    18 1   
     6     2    19 1   
     7     3     4 1   
     8     3    20 1   
     9     3    21 1   
    10     4     9 1   
    11     4    13 1   
    12     5     6 ar  
    13     5    10 1   
    14     5    16 ar  
    15     6     7 ar  
    16     6    22 1   
    17     7     8 ar  
    18     7    23 1   
    19     8    17 ar  
    20     8    24 1   
    21    11    12 1   
    22    11    15 1   
    23    12    25 1   
    24    12    26 1   
    25    12    27 1   
    26    14    15 2   
    27    15    16 1   
    28    16    17 ar  
    29    17    28 1   
@<TRIPOS>SUBSTRUCTURE
     1 EYA         1 TEMP              0 ****  ****    0 ROOT
