@<TRIPOS>MOLECULE
EYA
   28    29     1     0     0
SMALL
bcc


@<TRIPOS>ATOM
      1 C1           0.4300    -0.4000    -0.0630 cc         1 EYA       0.525900
      2 C2           1.9190    -0.5830    -0.0850 c3         1 EYA      -0.103700
      3 C3           2.7030     0.7060     0.0750 c3         1 EYA      -0.203400
      4 C4           4.2310     0.5210     0.1090 c          1 EYA       0.927600
      5 C5          -1.4190     0.9480    -0.0300 ca         1 EYA       0.211400
      6 C6          -1.9540     2.2450    -0.0450 ca         1 EYA      -0.130000
      7 C7          -3.3180     2.4310    -0.0070 ca         1 EYA      -0.101000
      8 C8          -4.1860     1.3330     0.0500 ca         1 EYA      -0.178000
      9 O1           4.6850    -0.6370     0.0320 o          1 EYA      -0.843800
     10 N1          -0.0600     0.7890    -0.0600 nd         1 EYA      -0.636100
     11 N           -0.3460    -1.5400    -0.0450 n          1 EYA      -0.402300
     12 C            0.2840    -2.8560    -0.0600 c3         1 EYA       0.072300
     13 O            4.8960     1.5720     0.2190 o          1 EYA      -0.843800
     14 O2          -2.4040    -2.5010     0.1190 o          1 EYA      -0.646500
     15 C11         -1.7300    -1.4880     0.0400 c          1 EYA       0.715100
     16 C10         -2.2900    -0.1440     0.0240 ca         1 EYA      -0.221600
     17 C9          -3.6750     0.0540     0.0670 ca         1 EYA      -0.058000
     18 H1           2.2040    -1.2870     0.7010 hc         1 EYA       0.067700
     19 H2           2.1970    -1.0750    -1.0230 hc         1 EYA       0.067700
     20 H3           2.4570     1.4050    -0.7280 hc         1 EYA       0.037700
     21 H4           2.3970     1.2110     0.9960 hc         1 EYA       0.037700
     22 H5          -1.2750     3.0880    -0.0870 ha         1 EYA       0.152000
     23 H6          -3.7230     3.4340    -0.0190 ha         1 EYA       0.122000
     24 H7          -5.2550     1.4900     0.0810 ha         1 EYA       0.122000
     25 H8           0.7230    -3.0880     0.9090 h1         1 EYA       0.055367
     26 H9          -0.4650    -3.6040    -0.2910 h1         1 EYA       0.055367
     27 H10          1.0580    -2.8980    -0.8210 h1         1 EYA       0.055367
     28 H12         -4.3380    -0.7990     0.1110 ha         1 EYA       0.142000
@<TRIPOS>BOND
     1     1     2 1   
     2     1    10 2   
     3     1    11 1   
     4     2     3 1   
     5     2    18 1   
     6     2    19 1   
     7     3     4 1   
     8     3    20 1   
     9     3    21 1   
    10     4     9 1   
    11     4    13 1   
    12     5     6 ar  
    13     5    10 1   
    14     5    16 ar  
    15     6     7 ar  
    16     6    22 1   
    17     7     8 ar  
    18     7    23 1   
    19     8    17 ar  
    20     8    24 1   
    21    11    12 1   
    22    11    15 1   
    23    12    25 1   
    24    12    26 1   
    25    12    27 1   
    26    14    15 2   
    27    15    16 1   
    28    16    17 ar  
    29    17    28 1   
@<TRIPOS>SUBSTRUCTURE
     1 EYA         1 TEMP              0 ****  ****    0 ROOT
