@<TRIPOS>MOLECULE
EYB
   43    46     1     0     0
SMALL
No Charge or Current Charge


@<TRIPOS>ATOM
      1 N1          -0.2420     1.6640    -0.2700 na         1 EYB      -0.076600
      2 N3          -5.6960    -1.4360    -0.6200 ny         1 EYB      -0.822000
      3 C4           2.0860     0.6000    -0.2090 ca         1 EYB      -0.127000
      4 C5           0.6900     0.6240    -0.1160 ca         1 EYB       0.006800
      5 C6          -0.0690    -0.5010     0.1850 cp         1 EYB      -0.101000
      6 C7          -1.5670     1.2450    -0.0680 ca         1 EYB       0.037800
      7 C8          -1.4790    -0.1160     0.2150 cp         1 EYB      -0.081000
      8 C10         -3.8920    -0.1920     0.4420 ca         1 EYB      -0.241300
      9 C13          0.1340     3.0550    -0.5760 c3         1 EYB       0.073600
     10 C15          4.2080    -0.6890    -0.0820 cc         1 EYB      -0.195000
     11 C17          5.1570     0.3120    -0.3650 cc         1 EYB       0.265900
     12 C1           0.5660    -1.7350     0.4060 ca         1 EYB      -0.046000
     13 C2           1.9750    -1.7920     0.3150 ca         1 EYB      -0.127000
     14 C3           2.7460    -0.6330     0.0090 ca         1 EYB       0.061000
     15 C9          -2.6440    -0.8590     0.4760 ca         1 EYB      -0.015000
     16 C11         -3.9570     1.1970     0.1560 ca         1 EYB      -0.067000
     17 C12         -2.7840     1.9360    -0.1040 ca         1 EYB      -0.125000
     18 C14          0.4160     3.8870     0.6890 c3         1 EYB      -0.120100
     19 C16          4.9450    -1.8170     0.1080 cd         1 EYB       0.201900
     20 O1           6.2760    -1.5240    -0.0490 os         1 EYB      -0.054700
     21 N2           6.4070    -0.1210    -0.3610 nd         1 EYB      -0.339300
     22 C18         -5.1620    -0.9650     0.7130 c3         1 EYB       0.170900
     23 C19         -6.9980    -2.2490    -0.6010 c3         1 EYB       0.072900
     24 H1          -5.8050    -0.6080    -1.2430 hn         1 EYB       0.502500
     25 H2          -4.9490    -1.9760    -1.1030 hn         1 EYB       0.502500
     26 H3           2.6400     1.5050    -0.4410 ha         1 EYB       0.129000
     27 H4           1.0250     3.0510    -1.2150 h1         1 EYB       0.064700
     28 H5          -0.6750     3.5260    -1.1490 h1         1 EYB       0.064700
     29 H6           4.9730     1.3560    -0.5770 h4         1 EYB       0.048100
     30 H7          -0.0130    -2.6240     0.6440 ha         1 EYB       0.118000
     31 H8           2.4590    -2.7480     0.4870 ha         1 EYB       0.123000
     32 H9          -2.5800    -1.9220     0.7000 ha         1 EYB       0.117000
     33 H10         -4.9210     1.7030     0.1360 ha         1 EYB       0.113000
     34 H11         -2.8280     3.0000    -0.3200 ha         1 EYB       0.140000
     35 H12          0.6910     4.9130     0.4180 hc         1 EYB       0.055033
     36 H13         -0.4730     3.9260     1.3310 hc         1 EYB       0.055033
     37 H14          1.2400     3.4480     1.2640 hc         1 EYB       0.055033
     38 H15          4.6790    -2.8370     0.3470 h4         1 EYB       0.064100
     39 H16         -5.9110    -0.3330     1.2010 hx         1 EYB       0.097200
     40 H17         -4.9690    -1.8310     1.3530 hx         1 EYB       0.097200
     41 H18         -6.8580    -3.1550    -0.0060 hx         1 EYB       0.100033
     42 H19         -7.8000    -1.6510    -0.1590 hx         1 EYB       0.100033
     43 H20         -7.2790    -2.5290    -1.6210 hx         1 EYB       0.100033
@<TRIPOS>BOND
     1     1     4 1   
     2     1     6 1   
     3     1     9 1   
     4     2    22 1   
     5     2    23 1   
     6     2    24 1   
     7     2    25 1   
     8     3     4 ar  
     9     3    14 ar  
    10     3    26 1   
    11     4     5 ar  
    12     5     7 1   
    13     5    12 ar  
    14     6     7 ar  
    15     6    17 ar  
    16     7    15 ar  
    17     8    15 ar  
    18     8    16 ar  
    19     8    22 1   
    20     9    18 1   
    21     9    27 1   
    22     9    28 1   
    23    10    11 1   
    24    10    14 1   
    25    10    19 2   
    26    11    21 2   
    27    11    29 1   
    28    12    13 ar  
    29    12    30 1   
    30    13    14 ar  
    31    13    31 1   
    32    15    32 1   
    33    16    17 ar  
    34    16    33 1   
    35    17    34 1   
    36    18    35 1   
    37    18    36 1   
    38    18    37 1   
    39    19    20 1   
    40    19    38 1   
    41    20    21 1   
    42    22    39 1   
    43    22    40 1   
    44    23    41 1   
    45    23    42 1   
    46    23    43 1   
@<TRIPOS>SUBSTRUCTURE
     1 EYB         1 TEMP              0 ****  ****    0 ROOT
