@<TRIPOS>MOLECULE
EYB
   43    46     1     0     0
SMALL
abcg2


@<TRIPOS>ATOM
      1 N1          -0.2300     1.6400    -0.2910 na         1 EYB      -0.076600
      2 N3          -5.7070    -1.4260    -0.6820 ny         1 EYB      -0.822000
      3 C4           2.0260     0.5830    -0.2080 ca         1 EYB      -0.127000
      4 C5           0.6390     0.5890    -0.1210 ca         1 EYB       0.006800
      5 C6          -0.0910    -0.5770     0.1770 cp         1 EYB      -0.101000
      6 C7          -1.5080     1.1890    -0.0860 ca         1 EYB       0.037800
      7 C8          -1.4760    -0.1930     0.1970 cp         1 EYB      -0.081000
      8 C10         -3.8630    -0.1910     0.3900 ca         1 EYB      -0.241300
      9 C13          0.1540     3.0190    -0.5010 c3         1 EYB       0.073600
     10 C15          4.1500    -0.6670    -0.0820 cc         1 EYB      -0.195000
     11 C17          5.0390     0.2960    -0.6360 cc         1 EYB       0.265900
     12 C1           0.5880    -1.7750     0.3810 ca         1 EYB      -0.046000
     13 C2           1.9650    -1.7910     0.2880 ca         1 EYB      -0.127000
     14 C3           2.6920    -0.6210    -0.0020 ca         1 EYB       0.061000
     15 C9          -2.6600    -0.8810     0.4320 ca         1 EYB      -0.015000
     16 C11         -3.8740     1.1850     0.1160 ca         1 EYB      -0.067000
     17 C12         -2.7100     1.8920    -0.1210 ca         1 EYB      -0.125000
     18 C14          0.4250     3.7560     0.8010 c3         1 EYB      -0.120100
     19 C16          5.0060    -1.6300     0.3510 cd         1 EYB       0.201900
     20 O1           6.2620    -1.2840     0.0830 os         1 EYB      -0.054700
     21 N2           6.2790    -0.0730    -0.5380 nd         1 EYB      -0.339300
     22 C18         -5.1520    -0.9180     0.6110 c3         1 EYB       0.170900
     23 C19         -6.9860    -2.1570    -0.5370 c3         1 EYB       0.072900
     24 H1          -5.8360    -0.6430    -1.3250 hn         1 EYB       0.502500
     25 H2          -5.0190    -2.0320    -1.1310 hn         1 EYB       0.502500
     26 H3           2.5740     1.4920    -0.4200 ha         1 EYB       0.129000
     27 H4           1.0350     3.0330    -1.1430 h1         1 EYB       0.064700
     28 H5          -0.6390     3.5110    -1.0640 h1         1 EYB       0.064700
     29 H6           4.8030     1.2370    -1.1110 h4         1 EYB       0.048100
     30 H7           0.0510    -2.6870     0.6090 ha         1 EYB       0.118000
     31 H8           2.4920    -2.7250     0.4360 ha         1 EYB       0.123000
     32 H9          -2.6450    -1.9420     0.6530 ha         1 EYB       0.117000
     33 H10         -4.8190     1.7160     0.0980 ha         1 EYB       0.113000
     34 H11         -2.7470     2.9550    -0.3180 ha         1 EYB       0.140000
     35 H12          0.6910     4.7930     0.5950 hc         1 EYB       0.055033
     36 H13         -0.4560     3.7550     1.4440 hc         1 EYB       0.055033
     37 H14          1.2490     3.3010     1.3510 hc         1 EYB       0.055033
     38 H15          4.8620    -2.5740     0.8540 h4         1 EYB       0.064100
     39 H16         -5.9180    -0.2770     1.0440 hx         1 EYB       0.097200
     40 H17         -5.0250    -1.7860     1.2560 hx         1 EYB       0.097200
     41 H18         -6.8230    -3.0210     0.1000 hx         1 EYB       0.100033
     42 H19         -7.7180    -1.4920    -0.0900 hx         1 EYB       0.100033
     43 H20         -7.3190    -2.4750    -1.5190 hx         1 EYB       0.100033
@<TRIPOS>BOND
     1     1     4 1   
     2     1     6 1   
     3     1     9 1   
     4     2    22 1   
     5     2    23 1   
     6     2    24 1   
     7     2    25 1   
     8     3     4 ar  
     9     3    14 ar  
    10     3    26 1   
    11     4     5 ar  
    12     5     7 1   
    13     5    12 ar  
    14     6     7 ar  
    15     6    17 ar  
    16     7    15 ar  
    17     8    15 ar  
    18     8    16 ar  
    19     8    22 1   
    20     9    18 1   
    21     9    27 1   
    22     9    28 1   
    23    10    11 1   
    24    10    14 1   
    25    10    19 2   
    26    11    21 2   
    27    11    29 1   
    28    12    13 ar  
    29    12    30 1   
    30    13    14 ar  
    31    13    31 1   
    32    15    32 1   
    33    16    17 ar  
    34    16    33 1   
    35    17    34 1   
    36    18    35 1   
    37    18    36 1   
    38    18    37 1   
    39    19    20 1   
    40    19    38 1   
    41    20    21 1   
    42    22    39 1   
    43    22    40 1   
    44    23    41 1   
    45    23    42 1   
    46    23    43 1   
@<TRIPOS>SUBSTRUCTURE
     1 EYB         1 TEMP              0 ****  ****    0 ROOT
