@<TRIPOS>MOLECULE
EYC
   44    45     1     0     0
SMALL
abcg2


@<TRIPOS>ATOM
      1 O01          7.1220     1.0150     1.1010 o          1 EYC      -0.550600
      2 C02          7.0910     1.0730    -0.1070 c          1 EYC       0.592600
      3 C03          8.3360     1.2600    -0.9620 c3         1 EYC       0.020100
      4 N05          5.9700     1.0080    -0.8680 ns         1 EYC      -0.134500
      5 C06          4.6370     0.9010    -0.4680 ca         1 EYC      -0.091500
      6 C07          3.6810     0.8200    -1.4830 ca         1 EYC      -0.140000
      7 C08          2.3420     0.7110    -1.1770 ca         1 EYC      -0.087000
      8 C09          1.9080     0.6830     0.1530 ca         1 EYC       0.120500
      9 C10          0.5130     0.5650     0.3780 cg         1 EYC      -0.070000
     10 C27          2.8700     0.7700     1.1640 ca         1 EYC      -0.185000
     11 S28          2.3540     0.7560     2.8860 s6         1 EYC       1.265100
     12 O29          1.6750    -0.5350     3.0700 o          1 EYC      -0.694200
     13 O30          3.5950     0.8790     3.6700 o          1 EYC      -0.694200
     14 O31          1.4680     1.9210     3.0190 o          1 EYC      -0.694200
     15 C32          4.2180     0.8760     0.8630 ca         1 EYC      -0.070500
     16 C11         -0.6880     0.4620     0.3520 ch         1 EYC      -0.070000
     17 C12         -2.0960     0.3200     0.3040 ca         1 EYC       0.120500
     18 C13         -2.8510     0.3690     1.4760 ca         1 EYC      -0.087000
     19 C14         -4.2280     0.2260     1.4690 ca         1 EYC      -0.140000
     20 C15         -4.8900     0.0290     0.2580 ca         1 EYC      -0.091500
     21 N16         -6.2690    -0.1360     0.1260 ns         1 EYC      -0.134500
     22 C17         -7.2300    -0.1140     1.0830 c          1 EYC       0.592600
     23 O18         -7.0360     0.0720     2.2630 o          1 EYC      -0.550600
     24 C19         -8.6100    -0.3600     0.4910 c3         1 EYC       0.020100
     25 C21         -4.1450    -0.0170    -0.9240 ca         1 EYC      -0.070500
     26 C22         -2.7740     0.1250    -0.9100 ca         1 EYC      -0.185000
     27 S23         -1.8620     0.0150    -2.4610 s6         1 EYC       1.265100
     28 O24         -1.0100    -1.1720    -2.3070 o          1 EYC      -0.694200
     29 O25         -2.8950    -0.1370    -3.5010 o          1 EYC      -0.694200
     30 O26         -1.1180     1.2790    -2.5720 o          1 EYC      -0.694200
     31 H1           8.3550     0.5500    -1.7880 h1         1 EYC       0.070700
     32 H2           8.3400     2.2670    -1.3830 h1         1 EYC       0.070700
     33 H4           6.1040     1.0480    -1.8680 hn         1 EYC       0.136000
     34 H5           3.9900     0.8430    -2.5210 ha         1 EYC       0.103500
     35 H6           1.6050     0.6510    -1.9660 ha         1 EYC       0.139000
     36 H7           4.9330     0.9360     1.6660 ha         1 EYC       0.142500
     37 H8          -2.3440     0.5220     2.4190 ha         1 EYC       0.139000
     38 H9          -4.7650     0.2670     2.4020 ha         1 EYC       0.103500
     39 H10         -6.5810    -0.3010    -0.8200 hn         1 EYC       0.136000
     40 H11         -8.8400     0.3960    -0.2590 h1         1 EYC       0.070700
     41 H12         -8.6400    -1.3350     0.0040 h1         1 EYC       0.070700
     42 H14         -4.6540    -0.1720    -1.8680 ha         1 EYC       0.142500
     43 CL1         -9.8650    -0.3160     1.7370 cl         1 EYC      -0.249000
     44 CL2          9.8100     1.0490    -0.0060 cl         1 EYC      -0.249000
@<TRIPOS>BOND
     1     1     2 2   
     2     2     3 1   
     3     2     4 1   
     4     3    31 1   
     5     3    32 1   
     6     3    44 1   
     7     4     5 1   
     8     4    33 1   
     9     5     6 ar  
    10     5    15 ar  
    11     6     7 ar  
    12     6    34 1   
    13     7     8 ar  
    14     7    35 1   
    15     8     9 1   
    16     8    10 ar  
    17     9    16 3   
    18    10    11 1   
    19    10    15 ar  
    20    11    12 1   
    21    11    13 1   
    22    11    14 1   
    23    15    36 1   
    24    16    17 1   
    25    17    18 ar  
    26    17    26 ar  
    27    18    19 ar  
    28    18    37 1   
    29    19    20 ar  
    30    19    38 1   
    31    20    21 1   
    32    20    25 ar  
    33    21    22 1   
    34    21    39 1   
    35    22    23 2   
    36    22    24 1   
    37    24    40 1   
    38    24    41 1   
    39    24    43 1   
    40    25    26 ar  
    41    25    42 1   
    42    26    27 1   
    43    27    28 1   
    44    27    29 1   
    45    27    30 1   
@<TRIPOS>SUBSTRUCTURE
     1 EYC         1 TEMP              0 ****  ****    0 ROOT
