@<TRIPOS>MOLECULE
EYC
   44    45     1     0     0
SMALL
No Charge or Current Charge


@<TRIPOS>ATOM
      1 O01          7.1730     1.2370     1.4020 o          1 EYC      -0.550600
      2 C02          7.2620     1.1700     0.1790 c          1 EYC       0.592600
      3 C03          8.6100     1.2540    -0.5590 c3         1 EYC       0.020100
      4 N05          6.1760     1.0120    -0.6770 ns         1 EYC      -0.134500
      5 C06          4.7740     0.8910    -0.4500 ca         1 EYC      -0.091500
      6 C07          3.9520     0.7450    -1.5780 ca         1 EYC      -0.140000
      7 C08          2.5630     0.6200    -1.4350 ca         1 EYC      -0.087000
      8 C09          1.9660     0.6380    -0.1620 ca         1 EYC       0.120500
      9 C10          0.5350     0.5040    -0.1010 cg         1 EYC      -0.070000
     10 C27          2.7750     0.7840     0.9940 ca         1 EYC      -0.185000
     11 S28          2.0250     0.8130     2.7030 s6         1 EYC       1.265100
     12 O29          1.3620    -0.4980     2.7670 o          1 EYC      -0.694200
     13 O30          3.1960     0.9770     3.5780 o          1 EYC      -0.694200
     14 O31          1.1250     1.9740     2.6210 o          1 EYC      -0.694200
     15 C32          4.1790     0.9100     0.8320 ca         1 EYC      -0.070500
     16 C11         -0.6800     0.3890    -0.0730 ch         1 EYC      -0.070000
     17 C12         -2.1010     0.2550    -0.0120 ca         1 EYC       0.120500
     18 C13         -2.7000     0.2640     1.2620 ca         1 EYC      -0.087000
     19 C14         -4.0900     0.1380     1.4100 ca         1 EYC      -0.140000
     20 C15         -4.9110    -0.0000     0.2740 ca         1 EYC      -0.091500
     21 N16         -6.3290    -0.1330     0.3380 ns         1 EYC      -0.134500
     22 C17         -7.2270    -0.1660     1.4020 c          1 EYC       0.592600
     23 O18         -6.9040    -0.0760     2.5830 o          1 EYC      -0.550600
     24 C19         -8.6910    -0.3280     0.9550 c3         1 EYC       0.020100
     25 C21         -4.3130    -0.0090    -1.0010 ca         1 EYC      -0.070500
     26 C22         -2.9120     0.1180    -1.1670 ca         1 EYC      -0.185000
     27 S23         -2.1700     0.1000    -2.8790 s6         1 EYC       1.265100
     28 O24         -1.2700    -1.0610    -2.8100 o          1 EYC      -0.694200
     29 O25         -3.3480    -0.0580    -3.7470 o          1 EYC      -0.694200
     30 O26         -1.5080     1.4130    -2.9380 o          1 EYC      -0.694200
     31 H1           8.7500     0.3340    -1.1380 h1         1 EYC       0.070700
     32 H2           8.5790     2.1060    -1.2480 h1         1 EYC       0.070700
     33 H4           6.4290     0.9770    -1.6570 hn         1 EYC       0.136000
     34 H5           4.3890     0.7280    -2.5750 ha         1 EYC       0.103500
     35 H6           1.9430     0.5080    -2.3220 ha         1 EYC       0.139000
     36 H7           4.7980     1.0210     1.7150 ha         1 EYC       0.142500
     37 H8          -2.0790     0.3700     2.1500 ha         1 EYC       0.139000
     38 H9          -4.5010     0.1500     2.4130 ha         1 EYC       0.103500
     39 H10         -6.7680    -0.2200    -0.5700 hn         1 EYC       0.136000
     40 H11         -8.9530     0.5110     0.2990 h1         1 EYC       0.070700
     41 H12         -8.7830    -1.2630     0.3880 h1         1 EYC       0.070700
     42 H14         -4.9540    -0.1150    -1.8740 ha         1 EYC       0.142500
     43 Cl1         -9.9120    -0.3770     2.3180 cl         1 EYC      -0.249000
     44 Cl2         10.0700     1.4620     0.5260 cl         1 EYC      -0.249000
@<TRIPOS>BOND
     1     1     2 2   
     2     2     3 1   
     3     2     4 1   
     4     3    31 1   
     5     3    32 1   
     6     3    44 1   
     7     4     5 1   
     8     4    33 1   
     9     5     6 ar  
    10     5    15 ar  
    11     6     7 ar  
    12     6    34 1   
    13     7     8 ar  
    14     7    35 1   
    15     8     9 1   
    16     8    10 ar  
    17     9    16 3   
    18    10    11 1   
    19    10    15 ar  
    20    11    12 1   
    21    11    13 1   
    22    11    14 1   
    23    15    36 1   
    24    16    17 1   
    25    17    18 ar  
    26    17    26 ar  
    27    18    19 ar  
    28    18    37 1   
    29    19    20 ar  
    30    19    38 1   
    31    20    21 1   
    32    20    25 ar  
    33    21    22 1   
    34    21    39 1   
    35    22    23 2   
    36    22    24 1   
    37    24    40 1   
    38    24    41 1   
    39    24    43 1   
    40    25    26 ar  
    41    25    42 1   
    42    26    27 1   
    43    27    28 1   
    44    27    29 1   
    45    27    30 1   
@<TRIPOS>SUBSTRUCTURE
     1 EYC         1 TEMP              0 ****  ****    0 ROOT
