@<TRIPOS>MOLECULE
EYE
   47    50     1     0     0
SMALL
abcg2


@<TRIPOS>ATOM
      1 N1          -0.7740     1.6120    -0.2760 na         1 EYE      -0.076600
      2 C1          -2.0690     1.1680    -0.3480 ca         1 EYE       0.038800
      3 C2          -2.0770    -0.2440    -0.3710 cp         1 EYE      -0.080000
      4 C3          -3.2820    -0.9280    -0.4650 ca         1 EYE      -0.017000
      5 C4          -4.4680    -0.2090    -0.5250 ca         1 EYE      -0.243300
      6 C5          -4.4390     1.1930    -0.4930 ca         1 EYE      -0.066000
      7 C6          -3.2530     1.8980    -0.4060 ca         1 EYE      -0.127000
      8 C7          -5.7790    -0.9250    -0.5910 c3         1 EYE       0.171900
      9 C8           0.0620     0.5230    -0.2210 ca         1 EYE       0.006800
     10 C9          -0.7030    -0.6570    -0.2850 cp         1 EYE      -0.103000
     11 C10         -0.0580    -1.8900    -0.2510 ca         1 EYE      -0.051000
     12 C11          1.3180    -1.9280    -0.1500 ca         1 EYE      -0.119000
     13 C12          2.0820    -0.7460    -0.0730 ca         1 EYE       0.059000
     14 C13          1.4460     0.4940    -0.1080 ca         1 EYE      -0.134000
     15 C14         -0.3550     2.9920    -0.1540 c3         1 EYE       0.072600
     16 C15          3.5340    -0.8390     0.0530 cc         1 EYE      -0.191000
     17 C16          4.2840    -1.8760     0.5350 cd         1 EYE      -0.097000
     18 C17          5.6790    -1.6210     0.5090 cd         1 EYE      -0.143000
     19 C18          5.9980    -0.3940     0.0090 cc         1 EYE      -0.169300
     20 S1           4.5690     0.4590    -0.4410 ss         1 EYE       0.191000
     21 C19          7.3460     0.2180    -0.1610 c3         1 EYE      -0.028800
     22 C20         -0.1280     3.4180     1.2880 c3         1 EYE      -0.118100
     23 N2          -6.2800    -1.2480     0.7820 ny         1 EYE      -0.822000
     24 C21         -7.6020    -1.9140     0.7950 c3         1 EYE       0.072900
     25 H1          -3.2980    -2.0120    -0.4950 ha         1 EYE       0.116000
     26 H2          -5.3710     1.7440    -0.5490 ha         1 EYE       0.112000
     27 H3          -3.2600     2.9790    -0.3880 ha         1 EYE       0.138000
     28 H4          -6.5500    -0.3210    -1.0670 hx         1 EYE       0.096700
     29 H5          -5.7060    -1.8730    -1.1220 hx         1 EYE       0.096700
     30 H6          -0.6210    -2.8130    -0.3100 ha         1 EYE       0.116000
     31 H7           1.8210    -2.8860    -0.1440 ha         1 EYE       0.129000
     32 H8           2.0160     1.4120    -0.0260 ha         1 EYE       0.132000
     33 H9           0.5540     3.1270    -0.7430 h1         1 EYE       0.066700
     34 H10         -1.1150     3.6170    -0.6220 h1         1 EYE       0.066700
     35 H11          3.8540    -2.7910     0.9180 ha         1 EYE       0.134000
     36 H12          6.4240    -2.3260     0.8530 ha         1 EYE       0.142000
     37 H13          7.5200     0.5400    -1.1890 hc         1 EYE       0.054367
     38 H14          7.4790     1.0900     0.4810 hc         1 EYE       0.054367
     39 H15          8.1160    -0.5070     0.0970 hc         1 EYE       0.054367
     40 H16          0.6500     2.8200     1.7620 hc         1 EYE       0.053033
     41 H17          0.1840     4.4610     1.3200 hc         1 EYE       0.053033
     42 H18         -1.0400     3.3200     1.8770 hc         1 EYE       0.053033
     43 H19         -5.5980    -1.8400     1.2580 hn         1 EYE       0.502000
     44 H20         -6.3270    -0.3920     1.3350 hn         1 EYE       0.502000
     45 H21         -8.3290    -1.2530     0.3330 hx         1 EYE       0.100033
     46 H22         -7.5320    -2.8430     0.2380 hx         1 EYE       0.100033
     47 H23         -7.8810    -2.1140     1.8240 hx         1 EYE       0.100033
@<TRIPOS>BOND
     1     1     2 1   
     2     1     9 1   
     3     1    15 1   
     4     2     3 ar  
     5     2     7 ar  
     6     3     4 ar  
     7     3    10 1   
     8     4     5 ar  
     9     4    25 1   
    10     5     6 ar  
    11     5     8 1   
    12     6     7 ar  
    13     6    26 1   
    14     7    27 1   
    15     8    23 1   
    16     8    28 1   
    17     8    29 1   
    18     9    10 ar  
    19     9    14 ar  
    20    10    11 ar  
    21    11    12 ar  
    22    11    30 1   
    23    12    13 ar  
    24    12    31 1   
    25    13    14 ar  
    26    13    16 1   
    27    14    32 1   
    28    15    22 1   
    29    15    33 1   
    30    15    34 1   
    31    16    17 2   
    32    16    20 1   
    33    17    18 1   
    34    17    35 1   
    35    18    19 2   
    36    18    36 1   
    37    19    20 1   
    38    19    21 1   
    39    21    37 1   
    40    21    38 1   
    41    21    39 1   
    42    22    40 1   
    43    22    41 1   
    44    22    42 1   
    45    23    24 1   
    46    23    43 1   
    47    23    44 1   
    48    24    45 1   
    49    24    46 1   
    50    24    47 1   
@<TRIPOS>SUBSTRUCTURE
     1 EYE         1 TEMP              0 ****  ****    0 ROOT
