@<TRIPOS>MOLECULE
EYE
   47    50     1     0     0
SMALL
No Charge or Current Charge


@<TRIPOS>ATOM
      1 N1          -0.8010     1.6690    -0.2320 na         1 EYE      -0.076600
      2 C1          -2.1360     1.2440    -0.3340 ca         1 EYE       0.038800
      3 C2          -2.0710    -0.1460    -0.4010 cp         1 EYE      -0.080000
      4 C3          -3.2520    -0.9030    -0.5090 ca         1 EYE      -0.017000
      5 C4          -4.4910    -0.2190    -0.5450 ca         1 EYE      -0.243300
      6 C5          -4.5330     1.1980    -0.4750 ca         1 EYE      -0.066000
      7 C6          -3.3440     1.9510    -0.3660 ca         1 EYE      -0.127000
      8 C7          -5.7770    -1.0040    -0.6550 c3         1 EYE       0.171900
      9 C8           0.1130     0.6030    -0.2200 ca         1 EYE       0.006800
     10 C9          -0.6670    -0.5450    -0.3290 cp         1 EYE      -0.103000
     11 C10         -0.0530    -1.8090    -0.3470 ca         1 EYE      -0.051000
     12 C11          1.3540    -1.8740    -0.2490 ca         1 EYE      -0.119000
     13 C12          2.1430    -0.6950    -0.1280 ca         1 EYE       0.059000
     14 C13          1.5080     0.5700    -0.1180 ca         1 EYE      -0.134000
     15 C14         -0.4030     3.0830    -0.1280 c3         1 EYE       0.072600
     16 C15          3.6030    -0.7700    -0.0300 cc         1 EYE      -0.191000
     17 C16          4.2430    -1.8310     0.5620 cd         1 EYE      -0.097000
     18 C17          5.6570    -1.6800     0.5690 cd         1 EYE      -0.143000
     19 C18          6.0940    -0.5110    -0.0070 cc         1 EYE      -0.169300
     20 S1           4.7360     0.4630    -0.5730 ss         1 EYE       0.191000
     21 C19          7.5120    -0.0340    -0.1650 c3         1 EYE      -0.028800
     22 C20         -0.3140     3.5700     1.3300 c3         1 EYE      -0.118100
     23 N2          -6.2720    -1.2580     0.7490 ny         1 EYE      -0.822000
     24 C21         -7.5810    -2.0440     0.8970 c3         1 EYE       0.072900
     25 H1          -3.2070    -1.9880    -0.5600 ha         1 EYE       0.116000
     26 H2          -5.4900     1.7160    -0.5040 ha         1 EYE       0.112000
     27 H3          -3.3710     3.0360    -0.3080 ha         1 EYE       0.138000
     28 H4          -6.5350    -0.4440    -1.2110 hx         1 EYE       0.096700
     29 H5          -5.6140    -1.9610    -1.1610 hx         1 EYE       0.096700
     30 H6          -0.6480    -2.7160    -0.4360 ha         1 EYE       0.116000
     31 H7           1.8330    -2.8490    -0.2790 ha         1 EYE       0.129000
     32 H8           2.0810     1.4870    -0.0230 ha         1 EYE       0.132000
     33 H9           0.5700     3.2160    -0.6170 h1         1 EYE       0.066700
     34 H10         -1.1270     3.6990    -0.6750 h1         1 EYE       0.066700
     35 H11          3.7390    -2.6900     0.9930 ha         1 EYE       0.134000
     36 H12          6.3290    -2.4210     0.9940 ha         1 EYE       0.142000
     37 H13          7.7270     0.2130    -1.2110 hc         1 EYE       0.054367
     38 H14          7.6910     0.8640     0.4390 hc         1 EYE       0.054367
     39 H15          8.2270    -0.8020     0.1530 hc         1 EYE       0.054367
     40 H16          0.4260     2.9840     1.8890 hc         1 EYE       0.053033
     41 H17         -0.0150     4.6240     1.3630 hc         1 EYE       0.053033
     42 H18         -1.2850     3.4710     1.8300 hc         1 EYE       0.053033
     43 H19         -5.5140    -1.7290     1.2870 hn         1 EYE       0.502000
     44 H20         -6.3510    -0.3430     1.2400 hn         1 EYE       0.502000
     45 H21         -8.3910    -1.5090     0.3930 hx         1 EYE       0.100033
     46 H22         -7.4710    -3.0330     0.4430 hx         1 EYE       0.100033
     47 H23         -7.8320    -2.1600     1.9550 hx         1 EYE       0.100033
@<TRIPOS>BOND
     1     1     2 1   
     2     1     9 1   
     3     1    15 1   
     4     2     3 ar  
     5     2     7 ar  
     6     3     4 ar  
     7     3    10 1   
     8     4     5 ar  
     9     4    25 1   
    10     5     6 ar  
    11     5     8 1   
    12     6     7 ar  
    13     6    26 1   
    14     7    27 1   
    15     8    23 1   
    16     8    28 1   
    17     8    29 1   
    18     9    10 ar  
    19     9    14 ar  
    20    10    11 ar  
    21    11    12 ar  
    22    11    30 1   
    23    12    13 ar  
    24    12    31 1   
    25    13    14 ar  
    26    13    16 1   
    27    14    32 1   
    28    15    22 1   
    29    15    33 1   
    30    15    34 1   
    31    16    17 2   
    32    16    20 1   
    33    17    18 1   
    34    17    35 1   
    35    18    19 2   
    36    18    36 1   
    37    19    20 1   
    38    19    21 1   
    39    21    37 1   
    40    21    38 1   
    41    21    39 1   
    42    22    40 1   
    43    22    41 1   
    44    22    42 1   
    45    23    24 1   
    46    23    43 1   
    47    23    44 1   
    48    24    45 1   
    49    24    46 1   
    50    24    47 1   
@<TRIPOS>SUBSTRUCTURE
     1 EYE         1 TEMP              0 ****  ****    0 ROOT
