@<TRIPOS>MOLECULE
EYF
   37    39     1     0     0
SMALL
bcc


@<TRIPOS>ATOM
      1 C8           3.7800   -11.8920     7.6240 c3         1 EYF       0.124700
      2 C5           1.9480    -9.9990    10.8960 ca         1 EYF      -0.064300
      3 C6           2.5310   -10.6190     9.7910 ca         1 EYF      -0.210000
      4 N1           1.0410    -6.6760    10.7210 nb         1 EYF      -0.676000
      5 C2           1.2100    -5.3750    10.8680 ca         1 EYF       0.471200
      6 C4           0.4990    -9.5860    10.7850 c3         1 EYF       0.097600
      7 O            1.1360    -2.5300    10.9630 o          1 EYF      -0.559100
      8 N            1.1180    -2.6310    13.2270 ns         1 EYF      -0.441400
      9 O1           1.5140    -1.3290    13.3360 oh         1 EYF      -0.397100
     10 C1           0.7670    -4.6420    11.9840 ca         1 EYF      -0.313900
     11 C15          0.0820    -5.2960    13.0010 ca         1 EYF      -0.014000
     12 C14         -0.1180    -6.6640    12.8720 ca         1 EYF      -0.215100
     13 C3           0.3940    -7.2780    11.7060 ca         1 EYF       0.451800
     14 C13         -0.7440    -7.6930    13.6360 cc         1 EYF      -0.177200
     15 C12         -0.5860    -8.8450    12.9270 cd         1 EYF      -0.098100
     16 N2           0.0940    -8.6030    11.7580 na         1 EYF      -0.160100
     17 C11          2.6850    -9.8130    12.0550 ca         1 EYF      -0.151000
     18 C10          4.0050   -10.2520    12.1020 ca         1 EYF      -0.091000
     19 C9           4.5900   -10.8720    11.0150 ca         1 EYF      -0.158000
     20 C7           3.8490   -11.0590     9.8450 ca         1 EYF       0.145100
     21 O2           4.4870   -11.6640     8.8260 os         1 EYF      -0.316900
     22 H1           4.4720   -12.3890     6.9490 h1         1 EYF       0.041367
     23 H2           2.9130   -12.5400     7.7760 h1         1 EYF       0.041367
     24 H3           3.4470   -10.9590     7.1610 h1         1 EYF       0.041367
     25 H4           1.9360   -10.7440     8.8940 ha         1 EYF       0.133000
     26 H5           1.7350    -4.8650    10.0700 h4         1 EYF       0.042100
     27 H6           0.2990    -9.1940     9.7870 h1         1 EYF       0.071200
     28 H7          -0.1450   -10.4580    10.9110 h1         1 EYF       0.071200
     29 H8           1.3750    -3.1960    14.0250 hn         1 EYF       0.328500
     30 H9           0.7110    -0.8250    13.5210 ho         1 EYF       0.411000
     31 H10         -0.3080    -4.7620    13.8600 ha         1 EYF       0.140000
     32 H11         -1.2470    -7.5930    14.5850 ha         1 EYF       0.161000
     33 H13         -0.9110    -9.8470    13.1630 h4         1 EYF       0.169000
     34 H15          2.2500    -9.3320    12.9220 ha         1 EYF       0.139000
     35 H16          4.5850   -10.1080    13.0050 ha         1 EYF       0.134000
     36 H17          5.6180   -11.2100    11.0590 ha         1 EYF       0.147000
     37 C            1.0320    -3.1770    11.9880 c          1 EYF       0.683700
@<TRIPOS>BOND
     1     1    21 1   
     2     1    22 1   
     3     1    23 1   
     4     1    24 1   
     5     2     3 ar  
     6     2     6 1   
     7     2    17 ar  
     8     3    20 ar  
     9     3    25 1   
    10     4     5 ar  
    11     4    13 ar  
    12     5    10 ar  
    13     5    26 1   
    14     6    16 1   
    15     6    27 1   
    16     6    28 1   
    17     7    37 2   
    18     8     9 1   
    19     8    29 1   
    20     8    37 1   
    21     9    30 1   
    22    10    11 ar  
    23    10    37 1   
    24    11    12 ar  
    25    11    31 1   
    26    12    13 ar  
    27    12    14 1   
    28    13    16 1   
    29    14    15 2   
    30    14    32 1   
    31    15    16 1   
    32    15    33 1   
    33    17    18 ar  
    34    17    34 1   
    35    18    19 ar  
    36    18    35 1   
    37    19    20 ar  
    38    19    36 1   
    39    20    21 1   
@<TRIPOS>SUBSTRUCTURE
     1 EYF         1 TEMP              0 ****  ****    0 ROOT
