@<TRIPOS>MOLECULE
EYF
   37    39     1     0     0
SMALL
No Charge or Current Charge


@<TRIPOS>ATOM
      1 C8           3.9090   -11.2600     7.3850 c3         1 EYF       0.147900
      2 C5           1.8520   -10.2730    11.0530 ca         1 EYF      -0.064300
      3 C6           2.5000   -10.5930     9.8420 ca         1 EYF      -0.192000
      4 N1           1.0450    -6.8050    10.6900 nb         1 EYF      -0.676000
      5 C2           1.2580    -5.4650    10.7350 ca         1 EYF       0.405900
      6 C4           0.4010    -9.7910    11.0340 c3         1 EYF       0.126900
      7 O            1.6680    -2.6680    10.7570 o          1 EYF      -0.559100
      8 N            0.8500    -2.4250    12.8780 ns         1 EYF      -0.374400
      9 O1           1.3040    -1.0550    13.0160 oh         1 EYF      -0.436100
     10 C1           0.8910    -4.6500    11.8290 ca         1 EYF      -0.248600
     11 C15          0.2620    -5.2620    12.9380 ca         1 EYF       0.004000
     12 C14          0.0600    -6.6430    12.8570 ca         1 EYF      -0.149800
     13 C3           0.4510    -7.3740    11.7590 ca         1 EYF       0.386500
     14 C13         -0.5490    -7.5260    13.8080 cc         1 EYF      -0.227200
     15 C12         -0.5120    -8.7960    13.2540 cd         1 EYF      -0.148100
     16 N2           0.1100    -8.7050    11.9860 na         1 EYF      -0.189400
     17 C11          2.5530   -10.4190    12.2680 ca         1 EYF      -0.133000
     18 C10          3.8840   -10.8680    12.2730 ca         1 EYF      -0.073000
     19 C9           4.5230   -11.1780    11.0620 ca         1 EYF      -0.140000
     20 C7           3.8380   -11.0440     9.8440 ca         1 EYF       0.145100
     21 O2           4.5160   -11.3650     8.6850 os         1 EYF      -0.340100
     22 H1           4.6210   -11.5620     6.6070 h1         1 EYF       0.041367
     23 H2           3.0290   -11.9110     7.3120 h1         1 EYF       0.041367
     24 H3           3.6010   -10.2260     7.1810 h1         1 EYF       0.041367
     25 H4           1.9510   -10.4830     8.9110 ha         1 EYF       0.115000
     26 H5           1.7430    -5.0400     9.8570 h4         1 EYF       0.042100
     27 H6           0.1430    -9.4420    10.0260 h1         1 EYF       0.071200
     28 H7          -0.2560   -10.6390    11.2620 h1         1 EYF       0.071200
     29 H8           0.5950    -2.8990    13.7410 hn         1 EYF       0.328500
     30 H9           0.4830    -0.5610    13.2540 ho         1 EYF       0.450000
     31 H10         -0.0630    -4.7110    13.8180 ha         1 EYF       0.122000
     32 H11         -0.9650    -7.2700    14.7820 ha         1 EYF       0.211000
     33 H13         -0.8700    -9.7400    13.6590 h4         1 EYF       0.219000
     34 H15          2.0690   -10.1870    13.2140 ha         1 EYF       0.121000
     35 H16          4.4190   -10.9760    13.2140 ha         1 EYF       0.116000
     36 H17          5.5530   -11.5250    11.0660 ha         1 EYF       0.129000
     37 C            1.1800    -3.1800    11.7560 c          1 EYF       0.616700
@<TRIPOS>BOND
     1     1    21 1   
     2     1    22 1   
     3     1    23 1   
     4     1    24 1   
     5     2     3 ar  
     6     2     6 1   
     7     2    17 ar  
     8     3    20 ar  
     9     3    25 1   
    10     4     5 ar  
    11     4    13 ar  
    12     5    10 ar  
    13     5    26 1   
    14     6    16 1   
    15     6    27 1   
    16     6    28 1   
    17     7    37 2   
    18     8     9 1   
    19     8    29 1   
    20     8    37 1   
    21     9    30 1   
    22    10    11 ar  
    23    10    37 1   
    24    11    12 ar  
    25    11    31 1   
    26    12    13 ar  
    27    12    14 1   
    28    13    16 1   
    29    14    15 2   
    30    14    32 1   
    31    15    16 1   
    32    15    33 1   
    33    17    18 ar  
    34    17    34 1   
    35    18    19 ar  
    36    18    35 1   
    37    19    20 ar  
    38    19    36 1   
    39    20    21 1   
@<TRIPOS>SUBSTRUCTURE
     1 EYF         1 TEMP              0 ****  ****    0 ROOT
