@<TRIPOS>MOLECULE
EYG
   45    46     1     0     0
SMALL
No Charge or Current Charge


@<TRIPOS>ATOM
      1 C           -3.7140    -2.8270     0.4600 c          1 EYG       0.725000
      2 O           -4.1080    -1.8460     1.0750 o          1 EYG      -0.734500
      3 N1          -3.4130     0.5990    -0.3160 n8         1 EYG      -0.976200
      4 C2          -0.4650    -2.5610    -0.0770 c          1 EYG       0.560200
      5 O2          -0.4600    -3.6890     0.4030 o          1 EYG      -0.534000
      6 N3          -1.5600    -1.9080    -0.5990 n          1 EYG      -0.391800
      7 CB          -1.4120     2.0500    -0.4890 c3         1 EYG      -0.109400
      8 CE          -2.1770     5.8470     1.2420 c3         1 EYG       0.043900
      9 CG          -2.0260     3.1450     0.4100 c3         1 EYG       0.069600
     10 CZ           5.5300     0.5680     0.1530 ca         1 EYG       0.113100
     11 C13         -1.1740    -0.5560    -0.9970 c5         1 EYG       0.618600
     12 O13         -1.3810    -0.3900    -2.3540 oh         1 EYG      -0.650000
     13 N23          0.2780    -0.4510    -0.9030 nu         1 EYG      -0.860200
     14 CA3         -1.9200     0.6100    -0.1780 c3         1 EYG       0.172500
     15 CAG         -2.8690    -2.5910    -0.8160 c3         1 EYG      -0.029000
     16 CAR          0.6940    -1.6240    -0.2250 ce         1 EYG       0.064800
     17 CB2          1.9450    -1.8120     0.2810 cf         1 EYG      -0.235200
     18 CD1          3.3990    -0.0650    -0.8370 ca         1 EYG      -0.082500
     19 CD2          4.1400    -1.1170     1.2230 ca         1 EYG      -0.082500
     20 CE1          4.5750     0.7050    -0.8640 ca         1 EYG      -0.173000
     21 CE2          5.3160    -0.3450     1.1960 ca         1 EYG      -0.173000
     22 CG2          3.1640    -0.9760     0.2160 ca         1 EYG      -0.037800
     23 HN11        -3.6330     0.4140    -1.3000 hn         1 EYG       0.403500
     24 HN12        -3.7660    -0.2450     0.1690 hn         1 EYG       0.403500
     25 OXT         -3.9700    -3.9770     0.7900 o          1 EYG      -0.734500
     26 HB          -1.6150     2.2930    -1.5390 hc         1 EYG       0.053700
     27 HBA         -0.3250     2.0900    -0.3610 hc         1 EYG       0.053700
     28 HE          -3.2540     5.8030     1.0320 h1         1 EYG       0.055700
     29 HEA         -1.9950     5.4950     2.2650 h1         1 EYG       0.055700
     30 HEB         -1.8380     6.8870     1.1560 h1         1 EYG       0.055700
     31 HG          -3.1090     3.2130     0.2430 h1         1 EYG       0.060700
     32 HGA         -1.8520     2.9000     1.4660 h1         1 EYG       0.060700
     33 HOH          7.2140     1.0880     0.9000 ho         1 EYG       0.456000
     34 HO13        -0.4620    -0.4970    -2.6670 ho         1 EYG       0.454000
     35 HN23         0.7120     0.4190    -0.5990 hn         1 EYG       0.474000
     36 H13         -1.6890     0.4210     0.8810 h1         1 EYG       0.101700
     37 HAG         -2.6820    -3.5640    -1.2890 h1         1 EYG       0.046200
     38 HAGA        -3.4750    -2.0010    -1.5140 h1         1 EYG       0.046200
     39 HB2          2.0920    -2.7420     0.8340 ha         1 EYG       0.205000
     40 HD1          2.6900     0.0350    -1.6530 ha         1 EYG       0.116500
     41 HD2          3.9840    -1.8210     2.0380 ha         1 EYG       0.116500
     42 HE1          4.7470     1.4020    -1.6800 ha         1 EYG       0.110500
     43 HE2          6.0530    -0.4640     1.9860 ha         1 EYG       0.110500
     44 SD          -1.2570     4.7870     0.0370 ss         1 EYG      -0.459000
     45 OH           6.6680     1.3170     0.1180 oh         1 EYG      -0.543100
@<TRIPOS>BOND
     1     1     2 1   
     2     1    15 1   
     3     1    25 1   
     4     3    14 1   
     5     3    23 1   
     6     3    24 1   
     7     4     5 2   
     8     4     6 1   
     9     4    16 1   
    10     6    11 1   
    11     6    15 1   
    12     7     9 1   
    13     7    14 1   
    14     7    26 1   
    15     7    27 1   
    16     8    28 1   
    17     8    29 1   
    18     8    30 1   
    19     8    44 1   
    20     9    31 1   
    21     9    32 1   
    22     9    44 1   
    23    10    20 ar  
    24    10    21 ar  
    25    10    45 1   
    26    11    12 1   
    27    11    13 1   
    28    11    14 1   
    29    12    34 1   
    30    13    16 1   
    31    13    35 1   
    32    14    36 1   
    33    15    37 1   
    34    15    38 1   
    35    16    17 2   
    36    17    22 1   
    37    17    39 1   
    38    18    20 ar  
    39    18    22 ar  
    40    18    40 1   
    41    19    21 ar  
    42    19    22 ar  
    43    19    41 1   
    44    20    42 1   
    45    21    43 1   
    46    33    45 1   
@<TRIPOS>SUBSTRUCTURE
     1 EYG         1 TEMP              0 ****  ****    0 ROOT
