@<TRIPOS>MOLECULE
EYG
   45    46     1     0     0
SMALL
abcg2


@<TRIPOS>ATOM
      1 C           -3.4810    -2.4560     0.7610 c          1 EYG       0.725000
      2 O           -2.8920    -1.9630     1.7370 o          1 EYG      -0.734500
      3 N1          -3.3340     0.3810    -0.4560 n8         1 EYG      -0.976200
      4 C2          -0.3800    -2.4920    -0.0030 c          1 EYG       0.560200
      5 O2          -0.3480    -3.6010     0.5060 o          1 EYG      -0.534000
      6 N3          -1.4380    -1.9030    -0.5830 n          1 EYG      -0.391800
      7 CB          -1.3960     1.9430    -0.5690 c3         1 EYG      -0.109400
      8 CE          -2.4110     5.6390     1.0330 c3         1 EYG       0.043900
      9 CG          -2.0640     2.9860     0.3160 c3         1 EYG       0.069600
     10 CZ           5.5680     0.5200     0.1400 ca         1 EYG       0.113100
     11 C13         -1.1610    -0.5580    -1.0640 c5         1 EYG       0.618600
     12 O13         -1.5330    -0.3940    -2.3890 oh         1 EYG      -0.650000
     13 N23          0.2800    -0.4980    -0.8980 nu         1 EYG      -0.860200
     14 CA3         -1.9060     0.5280    -0.2530 c3         1 EYG       0.172500
     15 CAG         -2.7370    -2.5230    -0.5870 c3         1 EYG      -0.029000
     16 CAR          0.7550    -1.5470    -0.1470 ce         1 EYG       0.064800
     17 CB2          1.9680    -1.7780     0.3780 cf         1 EYG      -0.235200
     18 CD1          3.3830    -0.0060    -0.7260 ca         1 EYG      -0.082500
     19 CD2          4.2110    -1.1670     1.1880 ca         1 EYG      -0.082500
     20 CE1          4.5560     0.7260    -0.7950 ca         1 EYG      -0.173000
     21 CE2          5.3880    -0.4400     1.1330 ca         1 EYG      -0.173000
     22 CG2          3.1720    -0.9660     0.2720 ca         1 EYG      -0.037800
     23 HN11        -3.8460     0.7070     0.3500 hn         1 EYG       0.403500
     24 HN12        -3.6470     0.9190    -1.2540 hn         1 EYG       0.403500
     25 OXT         -4.6280    -2.9460     0.7360 o          1 EYG      -0.734500
     26 HB          -1.5820     2.1770    -1.6210 hc         1 EYG       0.053700
     27 HBA         -0.3160     2.0210    -0.4130 hc         1 EYG       0.053700
     28 HE          -3.4800     5.5120     0.8620 h1         1 EYG       0.055700
     29 HEA         -2.1800     5.3890     2.0670 h1         1 EYG       0.055700
     30 HEB         -2.1530     6.6820     0.8610 h1         1 EYG       0.055700
     31 HG          -3.1470     2.9750     0.1870 h1         1 EYG       0.060700
     32 HGA         -1.8490     2.7870     1.3690 h1         1 EYG       0.060700
     33 HOH          7.3250     1.0130     0.7100 ho         1 EYG       0.456000
     34 HO13        -1.0320    -1.0150    -2.9330 ho         1 EYG       0.454000
     35 HN23         0.6980     0.4120    -0.7910 hn         1 EYG       0.474000
     36 H13         -1.6990     0.3050     0.7960 h1         1 EYG       0.101700
     37 HAG         -2.6130    -3.5730    -0.8680 h1         1 EYG       0.046200
     38 HAGA        -3.3430    -2.0570    -1.3590 h1         1 EYG       0.046200
     39 HB2          2.0480    -2.6840     0.9670 ha         1 EYG       0.205000
     40 HD1          2.6440     0.1540    -1.5000 ha         1 EYG       0.116500
     41 HD2          4.0950    -1.9120     1.9650 ha         1 EYG       0.116500
     42 HE1          4.6940     1.4540    -1.5840 ha         1 EYG       0.110500
     43 HE2          6.1670    -0.6250     1.8640 ha         1 EYG       0.110500
     44 SD          -1.4450     4.6360    -0.1160 ss         1 EYG      -0.459000
     45 OH           6.6890     1.2590     0.0290 oh         1 EYG      -0.543100
@<TRIPOS>BOND
     1     1     2 1   
     2     1    15 1   
     3     1    25 1   
     4     3    14 1   
     5     3    23 1   
     6     3    24 1   
     7     4     5 2   
     8     4     6 1   
     9     4    16 1   
    10     6    11 1   
    11     6    15 1   
    12     7     9 1   
    13     7    14 1   
    14     7    26 1   
    15     7    27 1   
    16     8    28 1   
    17     8    29 1   
    18     8    30 1   
    19     8    44 1   
    20     9    31 1   
    21     9    32 1   
    22     9    44 1   
    23    10    20 ar  
    24    10    21 ar  
    25    10    45 1   
    26    11    12 1   
    27    11    13 1   
    28    11    14 1   
    29    12    34 1   
    30    13    16 1   
    31    13    35 1   
    32    14    36 1   
    33    15    37 1   
    34    15    38 1   
    35    16    17 2   
    36    17    22 1   
    37    17    39 1   
    38    18    20 ar  
    39    18    22 ar  
    40    18    40 1   
    41    19    21 ar  
    42    19    22 ar  
    43    19    41 1   
    44    20    42 1   
    45    21    43 1   
    46    33    45 1   
@<TRIPOS>SUBSTRUCTURE
     1 EYG         1 TEMP              0 ****  ****    0 ROOT
