@<TRIPOS>MOLECULE
EYH
   65    69     1     0     0
SMALL
abcg2


@<TRIPOS>ATOM
      1 C1           2.5470     0.8710     0.3950 cc         1 EYH       0.475000
      2 C12         -1.0320     0.2620     0.8340 c5         1 EYH       0.258300
      3 C14         -1.6340    -0.7980    -0.0600 ca         1 EYH      -0.108300
      4 C15         -2.9170     1.9060     0.6780 ca         1 EYH      -0.031000
      5 C16         -2.6400    -1.6510     0.4010 ca         1 EYH      -0.045300
      6 C17         -3.1920    -2.5730    -0.4860 ca         1 EYH      -0.110000
      7 C18         -2.7610    -2.6300    -1.7990 ca         1 EYH       0.133000
      8 C19         -1.7750    -1.7770    -2.2690 ca         1 EYH      -0.113000
      9 C20         -1.2230    -0.8660    -1.3870 ca         1 EYH      -0.076000
     10 C21         -3.3490     2.5000     1.8670 ca         1 EYH      -0.066300
     11 C22         -4.7140     2.7310     2.0160 ca         1 EYH      -0.105000
     12 C23         -5.6270     2.3850     1.0310 ca         1 EYH      -0.097000
     13 C24         -5.1650     1.8030    -0.1370 ca         1 EYH       0.115000
     14 C25         -3.8150     1.5660    -0.3260 ca         1 EYH      -0.087000
     15 C26         -2.3840     2.8900     2.9460 c3         1 EYH      -0.049800
     16 C29         -3.1630    -1.5950     1.8090 c3         1 EYH      -0.055800
     17 C30          4.8020     0.8680     1.4620 ca         1 EYH       0.195900
     18 N2           1.9940     2.0240     0.1020 nd         1 EYH      -0.575000
     19 N3           1.6220    -0.0910     0.7400 na         1 EYH      -0.119500
     20 C4           1.9160    -1.4700     1.1430 c3         1 EYH       0.091300
     21 C5           1.0190    -1.8990     2.2930 c3         1 EYH      -0.111100
     22 C6           1.8240    -2.4230    -0.0390 c3         1 EYH      -0.111100
     23 C7           3.9900     0.6130     0.3800 ca         1 EYH      -0.311500
     24 C8           0.4220     0.5200     0.6440 cc         1 EYH      -0.204300
     25 C9           0.6680     1.7950     0.2570 cd         1 EYH       0.169500
     26 C10         -0.5910     2.5350     0.1770 c          1 EYH       0.517500
     27 N11         -1.5500     1.6010     0.4990 n          1 EYH      -0.273400
     28 O13         -0.8090     3.6990    -0.0940 o          1 EYH      -0.499000
     29 CL2         -6.2880     1.3630    -1.3820 cl         1 EYH      -0.199000
     30 CL3         -3.4690    -3.7880    -2.8750 cl         1 EYH      -0.197000
     31 N31          6.1190     0.6740     1.4540 nb         1 EYH      -0.284000
     32 C32          6.6230     0.2170     0.3250 ca         1 EYH       0.405300
     33 N33          5.9540    -0.0580    -0.7910 nb         1 EYH      -0.291000
     34 C34          4.6570     0.1410    -0.7670 ca         1 EYH       0.412300
     35 O35          3.9290    -0.0960    -1.8380 os         1 EYH      -0.439300
     36 C36          4.5720    -0.5960    -3.0110 c3         1 EYH       0.155900
     37 O37          7.9190    -0.0090     0.2300 os         1 EYH      -0.430300
     38 C38          8.7400     0.2560     1.3650 c3         1 EYH       0.162900
     39 H1          -1.2480     0.0480     1.8850 h1         1 EYH       0.074700
     40 H2          -3.9710    -3.2420    -0.1430 ha         1 EYH       0.131000
     41 H3          -1.4420    -1.8200    -3.2960 ha         1 EYH       0.135000
     42 H4          -0.4530    -0.1940    -1.7500 ha         1 EYH       0.134000
     43 H5          -5.0780     3.1860     2.9280 ha         1 EYH       0.119000
     44 H6          -6.6820     2.5660     1.1790 ha         1 EYH       0.130000
     45 H7          -3.4550     1.1190    -1.2430 ha         1 EYH       0.142000
     46 H8          -1.8630     3.8130     2.6880 hc         1 EYH       0.048700
     47 H9          -2.9040     3.0590     3.8880 hc         1 EYH       0.048700
     48 H10         -1.6230     2.1290     3.1180 hc         1 EYH       0.048700
     49 H11         -3.6270    -0.6310     2.0250 hc         1 EYH       0.048700
     50 H12         -3.9180    -2.3610     1.9720 hc         1 EYH       0.048700
     51 H13         -2.3760    -1.7510     2.5490 hc         1 EYH       0.048700
     52 H15          2.9450    -1.4550     1.5030 h1         1 EYH       0.069700
     53 H16          1.3880    -2.8400     2.6970 hc         1 EYH       0.052033
     54 H17          1.0090    -1.1660     3.0990 hc         1 EYH       0.052033
     55 H18         -0.0070    -2.0770     1.9650 hc         1 EYH       0.052033
     56 H19          2.4730    -2.1130    -0.8570 hc         1 EYH       0.052033
     57 H20          2.1310    -3.4200     0.2750 hc         1 EYH       0.052033
     58 H21          0.8040    -2.4880    -0.4180 hc         1 EYH       0.052033
     59 H22          5.3240     0.1010    -3.3800 h1         1 EYH       0.055367
     60 H23          5.0380    -1.5630    -2.8260 h1         1 EYH       0.055367
     61 H24          3.7840    -0.7070    -3.7490 h1         1 EYH       0.055367
     62 H25          8.7090     1.3090     1.6430 h1         1 EYH       0.053033
     63 H26          8.4440    -0.3470     2.2230 h1         1 EYH       0.053033
     64 H27          9.7490    -0.0100     1.0650 h1         1 EYH       0.053033
     65 H14          4.3730     1.2450     2.3840 h4         1 EYH       0.034100
@<TRIPOS>BOND
     1     1    18 2   
     2     1    19 1   
     3     1    23 1   
     4     2     3 1   
     5     2    24 1   
     6     2    27 1   
     7     2    39 1   
     8     3     5 ar  
     9     3     9 ar  
    10     4    10 ar  
    11     4    14 ar  
    12     4    27 1   
    13     5     6 ar  
    14     5    16 1   
    15     6     7 ar  
    16     6    40 1   
    17     7     8 ar  
    18     7    30 1   
    19     8     9 ar  
    20     8    41 1   
    21     9    42 1   
    22    10    11 ar  
    23    10    15 1   
    24    11    12 ar  
    25    11    43 1   
    26    12    13 ar  
    27    12    44 1   
    28    13    14 ar  
    29    13    29 1   
    30    14    45 1   
    31    15    46 1   
    32    15    47 1   
    33    15    48 1   
    34    16    49 1   
    35    16    50 1   
    36    16    51 1   
    37    17    23 ar  
    38    17    31 ar  
    39    17    65 1   
    40    18    25 1   
    41    19    20 1   
    42    19    24 1   
    43    20    21 1   
    44    20    22 1   
    45    20    52 1   
    46    21    53 1   
    47    21    54 1   
    48    21    55 1   
    49    22    56 1   
    50    22    57 1   
    51    22    58 1   
    52    23    34 ar  
    53    24    25 2   
    54    25    26 1   
    55    26    27 1   
    56    26    28 2   
    57    31    32 ar  
    58    32    33 ar  
    59    32    37 1   
    60    33    34 ar  
    61    34    35 1   
    62    35    36 1   
    63    36    59 1   
    64    36    60 1   
    65    36    61 1   
    66    37    38 1   
    67    38    62 1   
    68    38    63 1   
    69    38    64 1   
@<TRIPOS>SUBSTRUCTURE
     1 EYH         1 TEMP              0 ****  ****    0 ROOT
